                                   MODFLOW 6
                U.S. GEOLOGICAL SURVEY MODULAR HYDROLOGIC MODEL
                          GROUNDWATER FLOW MODEL (GWF)
                            VERSION 6.6.0 12/20/2024

   MODFLOW 6 compiled Dec 31 2024 17:10:16 with Intel(R) Fortran Intel(R) 64
   Compiler Classic for applications running on Intel(R) 64, Version 2021.7.0
                             Build 20220726_000000

This software has been approved for release by the U.S. Geological 
Survey (USGS). Although the software has been subjected to rigorous 
review, the USGS reserves the right to update the software as needed 
pursuant to further analysis and review. No warranty, expressed or 
implied, is made by the USGS or the U.S. Government as to the 
functionality of the software and related material nor shall the 
fact of release constitute any such warranty. Furthermore, the 
software is released on condition that neither the USGS nor the U.S. 
Government shall be held liable for any damages resulting from its 
authorized or unauthorized use. Also refer to the USGS Water 
Resources Software User Rights Notice for complete use, copyright, 
and distribution information.


As a work of the United States Government, this USGS product is 
in the public domain within the United States. You can copy, 
modify, distribute, and perform the work, even for commercial 
purposes, all without asking permission. Additionally, USGS 
waives copyright and related rights in the work worldwide 
through CC0 1.0 Universal Public Domain Dedication 
(https://creativecommons.org/publicdomain/zero/1.0/).

The following GNU Lesser General Public License (LGPL) libraries
are used in this USGS product:

    SPARSKIT version 2.0
      ilut, luson, and qsplit 
      (https://www-users.cse.umn.edu/~saad/software/SPARSKIT/)

    RCM - Reverse Cuthill McKee Ordering
      (https://people.math.sc.edu/Burkardt/f_src/rcm/rcm.html)

    BLAS - Basic Linear Algebra Subprograms Level 1
      (https://people.math.sc.edu/Burkardt/f_src/blas1_d/blas1_d.html)

    SPARSEKIT - Sparse Matrix Utility Package
      amux, dperm, dvperm, rperm, and cperm
      (https://people.sc.fsu.edu/~jburkardt/f77_src/sparsekit/sparsekit.html)

The following BSD-3 License libraries are used in this USGS product:

    Modern Fortran DAG Library
      Copyright (c) 2018, Jacob Williams
      All rights reserved.
      (https://github.com/jacobwilliams/daglib)

MODFLOW 6 compiler options: /O2 /heap-arrays:0 /fpe:0 /traceback /nologo /fpp
/c /module:win64\mod_mf6\ /object:win64\obj_mf6\

System command used to initiate simulation:
C:\Users\gross.DESKTOP-AIRQM2M\anaconda3\Scripts\mf6.exe

MODFLOW was compiled using uniform precision.

Real Variables
  KIND: 8
  TINY (smallest non-zero value):    2.225074-308
  HUGE (largest value):    1.797693+308
  PRECISION: 15
  SIZE IN BITS: 64

Integer Variables
  KIND: 4
  HUGE (largest value): 2147483647
  SIZE IN BITS: 32

Long Integer Variables
  KIND: 8
  HUGE (largest value): 9223372036854775807
  SIZE IN BITS: 64

Logical Variables
  KIND: 4
  SIZE IN BITS: 32
 
 NAMEFILE OPTIONS:
    FLOWS WILL BE SAVED TO BUDGET FILE SPECIFIED IN OUTPUT CONTROL
 END NAMEFILE OPTIONS:

 DIS -- STRUCTURED GRID DISCRETIZATION PACKAGE, VERSION 2 : 3/27/2014 - INPUT READ FROM MEMPATH: __INPUT__/GWF-P07-MF6/DIS                         


 NPF -- NODE PROPERTY FLOW PACKAGE, VERSION 1, 3/30/2015 INPUT READ FROM MEMPATH: __INPUT__/GWF-P07-MF6/NPF                         


 IC -- Initial Conditions Package, Version 8, 3/28/2015 input read from mempath: __INPUT__/GWF-P07-MF6/IC                          


 Setting Discretization Options
    Model length unit [0=UND, 1=FEET, 2=METERS, 3=CENTIMETERS] set as 2
 End Setting Discretization Options

 Setting Discretization Dimensions
    NLAY = 8
    NROW = 15
    NCOL = 21
 End Setting Discretization Dimensions

 Setting Discretization Griddata
    DELR set from input file
    DELC set from input file
    TOP set from input file
    BOTM set from input file
    IDOMAIN set from input file
 End Setting Discretization Griddata

 Setting NPF Options
    Specific discharge will be calculated at cell centers and written to DATA-SPDIS in budget file when requested.
 End Setting NPF Options

 Setting NPF Griddata
    ICELLTYPE set from input file
    K set from input file
    K33 set from input file
    K22 not provided.  Setting K22 = K.
 End Setting NPF Griddata


 WEL   -- WEL PACKAGE, VERSION 8, 2/22/2014 INPUT READ FROM MEMPATH: __INPUT__/GWF-P07-MF6/WEL-1                       

 PROCESSING WEL BASE OPTIONS
    LISTS OF WEL CELLS WILL BE PRINTED.
    WEL FLOWS WILL BE PRINTED TO LISTING FILE.
 END OF WEL BASE OPTIONS

 PROCESSING WEL OPTIONS
 END OF WEL OPTIONS

 PROCESSING WEL BASE DIMENSIONS
    MAXBOUND =       1
 END OF WEL BASE DIMENSIONS

 CHD   -- CHD PACKAGE, VERSION 8, 2/22/2014 INPUT READ FROM MEMPATH: __INPUT__/GWF-P07-MF6/CHD-1                       

 PROCESSING CHD BASE OPTIONS
 END OF CHD BASE OPTIONS

 PROCESSING CHD BASE DIMENSIONS
    MAXBOUND =     240
 END OF CHD BASE DIMENSIONS
    STRT set from input file
    BINARY GRID INFORMATION WILL BE WRITTEN TO:
      UNIT NUMBER: 1023
      FILE NAME: gwf-p07-mf6.dis.grb

 OPENED gwf-p07-mf6.dis.grb
 FILE TYPE:DATA(BINARY)   UNIT 1023   STATUS:REPLACE             
 FORMAT:UNFORMATTED            ACCESS:STREAM              
 ACTION:READWRITE           

      THE LAST TIME STEP WILL BE PRINTED
      THE LAST TIME STEP WILL BE PRINTED
 # File generated by Flopy version 3.9.1 on 02/26/2025 at 15:06:54.

 PROCESSING OC OPTIONS

    BUDGET INFORMATION WILL BE WRITTEN TO:
      UNIT NUMBER: 1024
      FILE NAME: gwf-p07-mf6.bud

 OPENED gwf-p07-mf6.bud
 FILE TYPE:DATA(BINARY)   UNIT 1024   STATUS:REPLACE             
 FORMAT:UNFORMATTED            ACCESS:STREAM              
 ACTION:READWRITE           

    HEAD INFORMATION WILL BE WRITTEN TO:
      UNIT NUMBER: 1025
      FILE NAME: gwf-p07-mf6.hds

 OPENED gwf-p07-mf6.hds
 FILE TYPE:DATA(BINARY)   UNIT 1025   STATUS:REPLACE             
 FORMAT:UNFORMATTED            ACCESS:STREAM              
 ACTION:READWRITE           

 END OF OC OPTIONS

start timestep kper="1" kstp="1" mode="normal"


 BEGIN READING OUTPUT CONTROL FOR STRESS PERIOD 1
      THE LAST TIME STEP WILL BE SAVED
      THE LAST TIME STEP WILL BE SAVED
      THE LAST TIME STEP WILL BE PRINTED
      THE LAST TIME STEP WILL BE PRINTED

 END READING OUTPUT CONTROL FOR STRESS PERIOD 1
 ---------------------------------------------------
  WEL NO.    LAYER    ROW     COL    CONCENTRATION  
 ---------------------------------------------------
     1         7       8       3     100.000000     
 ---------------------------------------------------



end timestep


start timestep kper="1" kstp="2" mode="normal"


end timestep


start timestep kper="1" kstp="3" mode="normal"


end timestep


start timestep kper="1" kstp="4" mode="normal"


end timestep


start timestep kper="1" kstp="5" mode="normal"


end timestep


start timestep kper="1" kstp="6" mode="normal"


end timestep


start timestep kper="1" kstp="7" mode="normal"


end timestep


start timestep kper="1" kstp="8" mode="normal"


end timestep


start timestep kper="1" kstp="9" mode="normal"


end timestep


start timestep kper="1" kstp="10" mode="normal"

 UBDSV1 SAVING     FLOW-JA-FACE ON UNIT   1024 AT TIME STEP     10, STRESS PERIOD      1
 UBDSV06 SAVING       DATA-SPDIS IN MODEL GWF-P07-MF6      PACKAGE NPF             CONNECTED TO MODEL GWF-P07-MF6      PACKAGE NPF              ON UNIT   1024 AT TIME STEP     10, STRESS PERIOD      1
 UBDSV06 SAVING              WEL IN MODEL GWF-P07-MF6      PACKAGE GWF-P07-MF6     CONNECTED TO MODEL GWF-P07-MF6      PACKAGE WEL-1            ON UNIT   1024 AT TIME STEP     10, STRESS PERIOD      1
 UBDSV06 SAVING              CHD IN MODEL GWF-P07-MF6      PACKAGE GWF-P07-MF6     CONNECTED TO MODEL GWF-P07-MF6      PACKAGE CHD-1            ON UNIT   1024 AT TIME STEP     10, STRESS PERIOD      1

 WEL PACKAGE (WEL-1) FLOW RATES   PERIOD      1   STEP       10
 -----------------------------------------------
   NUMBER   CELLID                    RATE      
 -----------------------------------------------
     1      (7,8,3)               0.50000000    
 -----------------------------------------------



1
  HEAD IN LAYER   1 AT END OF TIME STEP  10 IN STRESS PERIOD    1
  ---------------------------------------------------------------------------

                1               2               3               4               5               6               7               8               9              10
               11              12              13              14              15              16              17              18              19              20
               21
 ................................................................................................................................................................................................................................................................................................................................................
   1      13.3333         12.6669         12.0004         11.3339         10.6673         10.0007         9.33413         8.66748         8.00081         7.33411    
          6.66741         6.00068         5.33395         4.66722         4.00048         3.33374         2.66699         2.00024         1.33350        0.666748    
          0.00000    
   2      13.3333         12.6669         12.0004         11.3339         10.6673         10.0008         9.33415         8.66749         8.00082         7.33412    
          6.66741         6.00069         5.33396         4.66722         4.00048         3.33374         2.66699         2.00024         1.33350        0.666748    
          0.00000    
   3      13.3333         12.6669         12.0004         11.3339         10.6674         10.0008         9.33418         8.66752         8.00084         7.33414    
          6.66742         6.00070         5.33396         4.66722         4.00048         3.33374         2.66699         2.00025         1.33350        0.666749    
          0.00000    
   4      13.3333         12.6669         12.0005         11.3340         10.6674         10.0008         9.33422         8.66755         8.00086         7.33416    
          6.66744         6.00071         5.33397         4.66723         4.00049         3.33374         2.66699         2.00025         1.33350        0.666749    
          0.00000    
   5      13.3333         12.6669         12.0005         11.3340         10.6675         10.0009         9.33426         8.66759         8.00089         7.33418    
          6.66745         6.00072         5.33398         4.66724         4.00049         3.33374         2.66700         2.00025         1.33350        0.666749    
          0.00000    
   6      13.3333         12.6670         12.0006         11.3341         10.6676         10.0010         9.33430         8.66762         8.00092         7.33420    
          6.66746         6.00073         5.33398         4.66724         4.00049         3.33375         2.66700         2.00025         1.33350        0.666749    
          0.00000    
   7      13.3333         12.6670         12.0006         11.3341         10.6676         10.0010         9.33434         8.66765         8.00093         7.33421    
          6.66747         6.00073         5.33399         4.66724         4.00050         3.33375         2.66700         2.00025         1.33350        0.666750    
          0.00000    
   8      13.3333         12.6670         12.0006         11.3342         10.6676         10.0010         9.33435         8.66765         8.00094         7.33421    
          6.66748         6.00074         5.33399         4.66724         4.00050         3.33375         2.66700         2.00025         1.33350        0.666750    
          0.00000    
   9      13.3333         12.6670         12.0006         11.3341         10.6676         10.0010         9.33434         8.66765         8.00093         7.33421    
          6.66747         6.00073         5.33399         4.66724         4.00050         3.33375         2.66700         2.00025         1.33350        0.666750    
          0.00000    
  10      13.3333         12.6670         12.0006         11.3341         10.6676         10.0010         9.33430         8.66762         8.00092         7.33420    
          6.66746         6.00073         5.33398         4.66724         4.00049         3.33375         2.66700         2.00025         1.33350        0.666749    
          0.00000    
  11      13.3333         12.6669         12.0005         11.3340         10.6675         10.0009         9.33426         8.66759         8.00089         7.33418    
          6.66745         6.00072         5.33398         4.66724         4.00049         3.33374         2.66700         2.00025         1.33350        0.666749    
          0.00000    
  12      13.3333         12.6669         12.0005         11.3340         10.6674         10.0008         9.33422         8.66755         8.00086         7.33416    
          6.66744         6.00071         5.33397         4.66723         4.00049         3.33374         2.66699         2.00025         1.33350        0.666749    
          0.00000    
  13      13.3333         12.6669         12.0004         11.3339         10.6674         10.0008         9.33418         8.66752         8.00084         7.33414    
          6.66742         6.00070         5.33396         4.66722         4.00048         3.33374         2.66699         2.00025         1.33350        0.666749    
          0.00000    
  14      13.3333         12.6669         12.0004         11.3339         10.6673         10.0008         9.33415         8.66749         8.00082         7.33412    
          6.66741         6.00069         5.33396         4.66722         4.00048         3.33374         2.66699         2.00024         1.33350        0.666748    
          0.00000    
  15      13.3333         12.6669         12.0004         11.3339         10.6673         10.0007         9.33413         8.66748         8.00081         7.33411    
          6.66741         6.00068         5.33395         4.66722         4.00048         3.33374         2.66699         2.00024         1.33350        0.666748    
          0.00000    
1
  HEAD IN LAYER   2 AT END OF TIME STEP  10 IN STRESS PERIOD    1
  ---------------------------------------------------------------------------

                1               2               3               4               5               6               7               8               9              10
               11              12              13              14              15              16              17              18              19              20
               21
 ................................................................................................................................................................................................................................................................................................................................................
   1      13.3333         12.6669         12.0004         11.3339         10.6673         10.0008         9.33414         8.66749         8.00082         7.33412    
          6.66741         6.00069         5.33396         4.66722         4.00048         3.33374         2.66699         2.00024         1.33350        0.666748    
          0.00000    
   2      13.3333         12.6669         12.0004         11.3339         10.6674         10.0008         9.33416         8.66751         8.00083         7.33413    
          6.66742         6.00069         5.33396         4.66722         4.00048         3.33374         2.66699         2.00024         1.33350        0.666749    
          0.00000    
   3      13.3333         12.6669         12.0004         11.3340         10.6674         10.0008         9.33420         8.66754         8.00085         7.33415    
          6.66743         6.00070         5.33397         4.66723         4.00048         3.33374         2.66699         2.00025         1.33350        0.666749    
          0.00000    
   4      13.3333         12.6669         12.0005         11.3340         10.6675         10.0009         9.33425         8.66757         8.00088         7.33417    
          6.66744         6.00071         5.33397         4.66723         4.00049         3.33374         2.66699         2.00025         1.33350        0.666749    
          0.00000    
   5      13.3333         12.6670         12.0006         11.3341         10.6676         10.0009         9.33430         8.66762         8.00091         7.33419    
          6.66746         6.00072         5.33398         4.66724         4.00049         3.33374         2.66700         2.00025         1.33350        0.666749    
          0.00000    
   6      13.3333         12.6670         12.0006         11.3342         10.6676         10.0010         9.33435         8.66766         8.00094         7.33421    
          6.66748         6.00073         5.33399         4.66724         4.00050         3.33375         2.66700         2.00025         1.33350        0.666750    
          0.00000    
   7      13.3333         12.6670         12.0007         11.3342         10.6677         10.0011         9.33439         8.66768         8.00096         7.33423    
          6.66749         6.00074         5.33399         4.66725         4.00050         3.33375         2.66700         2.00025         1.33350        0.666750    
          0.00000    
   8      13.3333         12.6671         12.0007         11.3343         10.6677         10.0011         9.33440         8.66769         8.00097         7.33423    
          6.66749         6.00074         5.33400         4.66725         4.00050         3.33375         2.66700         2.00025         1.33350        0.666750    
          0.00000    
   9      13.3333         12.6670         12.0007         11.3342         10.6677         10.0011         9.33439         8.66768         8.00096         7.33423    
          6.66749         6.00074         5.33399         4.66725         4.00050         3.33375         2.66700         2.00025         1.33350        0.666750    
          0.00000    
  10      13.3333         12.6670         12.0006         11.3342         10.6676         10.0010         9.33435         8.66766         8.00094         7.33421    
          6.66748         6.00073         5.33399         4.66724         4.00050         3.33375         2.66700         2.00025         1.33350        0.666750    
          0.00000    
  11      13.3333         12.6670         12.0006         11.3341         10.6676         10.0009         9.33430         8.66762         8.00091         7.33419    
          6.66746         6.00072         5.33398         4.66724         4.00049         3.33374         2.66700         2.00025         1.33350        0.666749    
          0.00000    
  12      13.3333         12.6669         12.0005         11.3340         10.6675         10.0009         9.33425         8.66757         8.00088         7.33417    
          6.66744         6.00071         5.33397         4.66723         4.00049         3.33374         2.66699         2.00025         1.33350        0.666749    
          0.00000    
  13      13.3333         12.6669         12.0004         11.3340         10.6674         10.0008         9.33420         8.66754         8.00085         7.33415    
          6.66743         6.00070         5.33397         4.66723         4.00048         3.33374         2.66699         2.00025         1.33350        0.666749    
          0.00000    
  14      13.3333         12.6669         12.0004         11.3339         10.6674         10.0008         9.33416         8.66751         8.00083         7.33413    
          6.66742         6.00069         5.33396         4.66722         4.00048         3.33374         2.66699         2.00024         1.33350        0.666749    
          0.00000    
  15      13.3333         12.6669         12.0004         11.3339         10.6673         10.0008         9.33414         8.66749         8.00082         7.33412    
          6.66741         6.00069         5.33396         4.66722         4.00048         3.33374         2.66699         2.00024         1.33350        0.666748    
          0.00000    
1
  HEAD IN LAYER   3 AT END OF TIME STEP  10 IN STRESS PERIOD    1
  ---------------------------------------------------------------------------

                1               2               3               4               5               6               7               8               9              10
               11              12              13              14              15              16              17              18              19              20
               21
 ................................................................................................................................................................................................................................................................................................................................................
   1      13.3333         12.6669         12.0004         11.3339         10.6674         10.0008         9.33417         8.66752         8.00084         7.33414    
          6.66742         6.00070         5.33396         4.66723         4.00048         3.33374         2.66699         2.00025         1.33350        0.666749    
          0.00000    
   2      13.3333         12.6669         12.0004         11.3339         10.6674         10.0008         9.33419         8.66754         8.00085         7.33415    
          6.66743         6.00070         5.33397         4.66723         4.00048         3.33374         2.66699         2.00025         1.33350        0.666749    
          0.00000    
   3      13.3333         12.6669         12.0005         11.3340         10.6675         10.0009         9.33424         8.66757         8.00088         7.33417    
          6.66744         6.00071         5.33397         4.66723         4.00049         3.33374         2.66699         2.00025         1.33350        0.666749    
          0.00000    
   4      13.3333         12.6670         12.0006         11.3341         10.6676         10.0010         9.33430         8.66762         8.00091         7.33419    
          6.66746         6.00072         5.33398         4.66724         4.00049         3.33374         2.66700         2.00025         1.33350        0.666749    
          0.00000    
   5      13.3333         12.6670         12.0007         11.3342         10.6677         10.0010         9.33437         8.66767         8.00095         7.33422    
          6.66748         6.00074         5.33399         4.66724         4.00050         3.33375         2.66700         2.00025         1.33350        0.666750    
          0.00000    
   6      13.3333         12.6671         12.0008         11.3344         10.6678         10.0011         9.33444         8.66772         8.00098         7.33424    
          6.66750         6.00075         5.33400         4.66725         4.00050         3.33375         2.66700         2.00025         1.33350        0.666750    
          0.00000    
   7      13.3333         12.6672         12.0009         11.3345         10.6679         10.0012         9.33450         8.66776         8.00101         7.33426    
          6.66751         6.00076         5.33400         4.66725         4.00050         3.33375         2.66700         2.00025         1.33350        0.666750    
          0.00000    
   8      13.3333         12.6672         12.0010         11.3345         10.6679         10.0012         9.33452         8.66777         8.00102         7.33427    
          6.66751         6.00076         5.33401         4.66725         4.00050         3.33375         2.66700         2.00025         1.33350        0.666750    
          0.00000    
   9      13.3333         12.6672         12.0009         11.3345         10.6679         10.0012         9.33450         8.66776         8.00101         7.33426    
          6.66751         6.00076         5.33400         4.66725         4.00050         3.33375         2.66700         2.00025         1.33350        0.666750    
          0.00000    
  10      13.3333         12.6671         12.0008         11.3344         10.6678         10.0011         9.33444         8.66772         8.00098         7.33424    
          6.66750         6.00075         5.33400         4.66725         4.00050         3.33375         2.66700         2.00025         1.33350        0.666750    
          0.00000    
  11      13.3333         12.6670         12.0007         11.3342         10.6677         10.0010         9.33437         8.66767         8.00095         7.33422    
          6.66748         6.00074         5.33399         4.66724         4.00050         3.33375         2.66700         2.00025         1.33350        0.666750    
          0.00000    
  12      13.3333         12.6670         12.0006         11.3341         10.6676         10.0010         9.33430         8.66762         8.00091         7.33419    
          6.66746         6.00072         5.33398         4.66724         4.00049         3.33374         2.66700         2.00025         1.33350        0.666749    
          0.00000    
  13      13.3333         12.6669         12.0005         11.3340         10.6675         10.0009         9.33424         8.66757         8.00088         7.33417    
          6.66744         6.00071         5.33397         4.66723         4.00049         3.33374         2.66699         2.00025         1.33350        0.666749    
          0.00000    
  14      13.3333         12.6669         12.0004         11.3339         10.6674         10.0008         9.33419         8.66754         8.00085         7.33415    
          6.66743         6.00070         5.33397         4.66723         4.00048         3.33374         2.66699         2.00025         1.33350        0.666749    
          0.00000    
  15      13.3333         12.6669         12.0004         11.3339         10.6674         10.0008         9.33417         8.66752         8.00084         7.33414    
          6.66742         6.00070         5.33396         4.66723         4.00048         3.33374         2.66699         2.00025         1.33350        0.666749    
          0.00000    
1
  HEAD IN LAYER   4 AT END OF TIME STEP  10 IN STRESS PERIOD    1
  ---------------------------------------------------------------------------

                1               2               3               4               5               6               7               8               9              10
               11              12              13              14              15              16              17              18              19              20
               21
 ................................................................................................................................................................................................................................................................................................................................................
   1      13.3333         12.6669         12.0005         11.3340         10.6674         10.0008         9.33421         8.66755         8.00086         7.33416    
          6.66744         6.00071         5.33397         4.66723         4.00049         3.33374         2.66699         2.00025         1.33350        0.666749    
          0.00000    
   2      13.3333         12.6669         12.0005         11.3340         10.6675         10.0009         9.33424         8.66757         8.00088         7.33417    
          6.66744         6.00071         5.33398         4.66723         4.00049         3.33374         2.66700         2.00025         1.33350        0.666749    
          0.00000    
   3      13.3333         12.6670         12.0006         11.3341         10.6675         10.0009         9.33430         8.66761         8.00091         7.33419    
          6.66746         6.00072         5.33398         4.66724         4.00049         3.33374         2.66700         2.00025         1.33350        0.666749    
          0.00000    
   4      13.3333         12.6670         12.0007         11.3342         10.6677         10.0011         9.33438         8.66767         8.00095         7.33422    
          6.66748         6.00074         5.33399         4.66724         4.00050         3.33375         2.66700         2.00025         1.33350        0.666750    
          0.00000    
   5      13.3333         12.6671         12.0009         11.3344         10.6679         10.0012         9.33448         8.66774         8.00100         7.33425    
          6.66750         6.00075         5.33400         4.66725         4.00050         3.33375         2.66700         2.00025         1.33350        0.666750    
          0.00000    
   6      13.3333         12.6673         12.0011         11.3347         10.6681         10.0013         9.33458         8.66781         8.00105         7.33428    
          6.66752         6.00077         5.33401         4.66726         4.00050         3.33375         2.66700         2.00025         1.33350        0.666750    
          0.00000    
   7      13.3333         12.6675         12.0014         11.3349         10.6682         10.0015         9.33466         8.66786         8.00108         7.33430    
          6.66754         6.00077         5.33402         4.66726         4.00051         3.33375         2.66700         2.00025         1.33350        0.666751    
          0.00000    
   8      13.3333         12.6676         12.0016         11.3351         10.6683         10.0015         9.33469         8.66788         8.00109         7.33431    
          6.66754         6.00078         5.33402         4.66726         4.00051         3.33376         2.66700         2.00025         1.33350        0.666751    
          0.00000    
   9      13.3333         12.6675         12.0014         11.3349         10.6682         10.0015         9.33466         8.66786         8.00108         7.33430    
          6.66754         6.00077         5.33402         4.66726         4.00051         3.33375         2.66700         2.00025         1.33350        0.666751    
          0.00000    
  10      13.3333         12.6673         12.0011         11.3347         10.6681         10.0013         9.33458         8.66781         8.00105         7.33428    
          6.66752         6.00077         5.33401         4.66726         4.00050         3.33375         2.66700         2.00025         1.33350        0.666750    
          0.00000    
  11      13.3333         12.6671         12.0009         11.3344         10.6679         10.0012         9.33448         8.66774         8.00100         7.33425    
          6.66750         6.00075         5.33400         4.66725         4.00050         3.33375         2.66700         2.00025         1.33350        0.666750    
          0.00000    
  12      13.3333         12.6670         12.0007         11.3342         10.6677         10.0011         9.33438         8.66767         8.00095         7.33422    
          6.66748         6.00074         5.33399         4.66724         4.00050         3.33375         2.66700         2.00025         1.33350        0.666750    
          0.00000    
  13      13.3333         12.6670         12.0006         11.3341         10.6675         10.0009         9.33430         8.66761         8.00091         7.33419    
          6.66746         6.00072         5.33398         4.66724         4.00049         3.33374         2.66700         2.00025         1.33350        0.666749    
          0.00000    
  14      13.3333         12.6669         12.0005         11.3340         10.6675         10.0009         9.33424         8.66757         8.00088         7.33417    
          6.66744         6.00071         5.33397         4.66723         4.00049         3.33374         2.66700         2.00025         1.33350        0.666749    
          0.00000    
  15      13.3333         12.6669         12.0005         11.3340         10.6674         10.0008         9.33421         8.66755         8.00086         7.33416    
          6.66744         6.00071         5.33397         4.66723         4.00049         3.33374         2.66699         2.00025         1.33350        0.666749    
          0.00000    
1
  HEAD IN LAYER   5 AT END OF TIME STEP  10 IN STRESS PERIOD    1
  ---------------------------------------------------------------------------

                1               2               3               4               5               6               7               8               9              10
               11              12              13              14              15              16              17              18              19              20
               21
 ................................................................................................................................................................................................................................................................................................................................................
   1      13.3333         12.6669         12.0005         11.3340         10.6675         10.0009         9.33425         8.66758         8.00089         7.33418    
          6.66745         6.00072         5.33398         4.66724         4.00049         3.33374         2.66700         2.00025         1.33350        0.666749    
          0.00000    
   2      13.3333         12.6670         12.0005         11.3341         10.6675         10.0009         9.33429         8.66761         8.00091         7.33419    
          6.66746         6.00072         5.33398         4.66724         4.00049         3.33375         2.66700         2.00025         1.33350        0.666750    
          0.00000    
   3      13.3333         12.6670         12.0006         11.3342         10.6676         10.0010         9.33436         8.66766         8.00095         7.33422    
          6.66748         6.00074         5.33399         4.66724         4.00050         3.33375         2.66700         2.00025         1.33350        0.666750    
          0.00000    
   4      13.3333         12.6671         12.0008         11.3344         10.6678         10.0012         9.33447         8.66774         8.00100         7.33425    
          6.66750         6.00075         5.33400         4.66725         4.00050         3.33375         2.66700         2.00025         1.33350        0.666750    
          0.00000    
   5      13.3333         12.6673         12.0011         11.3347         10.6681         10.0014         9.33460         8.66783         8.00106         7.33429    
          6.66753         6.00077         5.33401         4.66726         4.00051         3.33375         2.66700         2.00025         1.33350        0.666750    
          0.00000    
   6      13.3333         12.6676         12.0016         11.3352         10.6684         10.0016         9.33475         8.66792         8.00112         7.33433    
          6.66755         6.00078         5.33402         4.66727         4.00051         3.33376         2.66700         2.00025         1.33350        0.666751    
          0.00000    
   7      13.3333         12.6680         12.0024         11.3357         10.6688         10.0018         9.33486         8.66799         8.00116         7.33435    
          6.66757         6.00080         5.33403         4.66727         4.00051         3.33376         2.66701         2.00025         1.33350        0.666751    
          0.00000    
   8      13.3333         12.6683         12.0030         11.3361         10.6690         10.0019         9.33491         8.66802         8.00117         7.33436    
          6.66758         6.00080         5.33403         4.66727         4.00051         3.33376         2.66701         2.00025         1.33350        0.666751    
          0.00000    
   9      13.3333         12.6680         12.0024         11.3357         10.6688         10.0018         9.33486         8.66799         8.00116         7.33435    
          6.66757         6.00080         5.33403         4.66727         4.00051         3.33376         2.66701         2.00025         1.33350        0.666751    
          0.00000    
  10      13.3333         12.6676         12.0016         11.3352         10.6684         10.0016         9.33475         8.66792         8.00112         7.33433    
          6.66755         6.00078         5.33402         4.66727         4.00051         3.33376         2.66700         2.00025         1.33350        0.666751    
          0.00000    
  11      13.3333         12.6673         12.0011         11.3347         10.6681         10.0014         9.33460         8.66783         8.00106         7.33429    
          6.66753         6.00077         5.33401         4.66726         4.00051         3.33375         2.66700         2.00025         1.33350        0.666750    
          0.00000    
  12      13.3333         12.6671         12.0008         11.3344         10.6678         10.0012         9.33447         8.66774         8.00100         7.33425    
          6.66750         6.00075         5.33400         4.66725         4.00050         3.33375         2.66700         2.00025         1.33350        0.666750    
          0.00000    
  13      13.3333         12.6670         12.0006         11.3342         10.6676         10.0010         9.33436         8.66766         8.00095         7.33422    
          6.66748         6.00074         5.33399         4.66724         4.00050         3.33375         2.66700         2.00025         1.33350        0.666750    
          0.00000    
  14      13.3333         12.6670         12.0005         11.3341         10.6675         10.0009         9.33429         8.66761         8.00091         7.33419    
          6.66746         6.00072         5.33398         4.66724         4.00049         3.33375         2.66700         2.00025         1.33350        0.666750    
          0.00000    
  15      13.3333         12.6669         12.0005         11.3340         10.6675         10.0009         9.33425         8.66758         8.00089         7.33418    
          6.66745         6.00072         5.33398         4.66724         4.00049         3.33374         2.66700         2.00025         1.33350        0.666749    
          0.00000    
1
  HEAD IN LAYER   6 AT END OF TIME STEP  10 IN STRESS PERIOD    1
  ---------------------------------------------------------------------------

                1               2               3               4               5               6               7               8               9              10
               11              12              13              14              15              16              17              18              19              20
               21
 ................................................................................................................................................................................................................................................................................................................................................
   1      13.3333         12.6669         12.0005         11.3341         10.6675         10.0009         9.33429         8.66762         8.00092         7.33420    
          6.66747         6.00073         5.33399         4.66724         4.00050         3.33375         2.66700         2.00025         1.33350        0.666750    
          0.00000    
   2      13.3333         12.6670         12.0006         11.3341         10.6676         10.0010         9.33434         8.66765         8.00094         7.33421    
          6.66748         6.00074         5.33399         4.66725         4.00050         3.33375         2.66700         2.00025         1.33350        0.666750    
          0.00000    
   3      13.3333         12.6671         12.0007         11.3343         10.6677         10.0011         9.33443         8.66771         8.00098         7.33424    
          6.66750         6.00075         5.33400         4.66725         4.00050         3.33375         2.66700         2.00025         1.33350        0.666750    
          0.00000    
   4      13.3333         12.6672         12.0010         11.3346         10.6680         10.0013         9.33456         8.66781         8.00104         7.33428    
          6.66752         6.00077         5.33401         4.66726         4.00051         3.33375         2.66700         2.00025         1.33350        0.666750    
          0.00000    
   5      13.3333         12.6675         12.0015         11.3351         10.6684         10.0016         9.33473         8.66792         8.00112         7.33433    
          6.66755         6.00079         5.33402         4.66727         4.00051         3.33376         2.66700         2.00025         1.33350        0.666751    
          0.00000    
   6      13.3333         12.6681         12.0025         11.3358         10.6689         10.0019         9.33492         8.66803         8.00119         7.33437    
          6.66758         6.00080         5.33404         4.66727         4.00052         3.33376         2.66701         2.00025         1.33350        0.666751    
          0.00000    
   7      13.3333         12.6690         12.0044         11.3370         10.6695         10.0022         9.33508         8.66812         8.00124         7.33440    
          6.66760         6.00082         5.33404         4.66728         4.00052         3.33376         2.66701         2.00025         1.33350        0.666751    
          0.00000    
   8      13.3333         12.6701         12.0074         11.3382         10.6699         10.0023         9.33515         8.66816         8.00126         7.33442    
          6.66761         6.00082         5.33405         4.66728         4.00052         3.33376         2.66701         2.00026         1.33350        0.666751    
          0.00000    
   9      13.3333         12.6690         12.0044         11.3370         10.6695         10.0022         9.33508         8.66812         8.00124         7.33440    
          6.66760         6.00082         5.33404         4.66728         4.00052         3.33376         2.66701         2.00025         1.33350        0.666751    
          0.00000    
  10      13.3333         12.6681         12.0025         11.3358         10.6689         10.0019         9.33492         8.66803         8.00119         7.33437    
          6.66758         6.00080         5.33404         4.66727         4.00052         3.33376         2.66701         2.00025         1.33350        0.666751    
          0.00000    
  11      13.3333         12.6675         12.0015         11.3351         10.6684         10.0016         9.33473         8.66792         8.00112         7.33433    
          6.66755         6.00079         5.33402         4.66727         4.00051         3.33376         2.66700         2.00025         1.33350        0.666751    
          0.00000    
  12      13.3333         12.6672         12.0010         11.3346         10.6680         10.0013         9.33456         8.66781         8.00104         7.33428    
          6.66752         6.00077         5.33401         4.66726         4.00051         3.33375         2.66700         2.00025         1.33350        0.666750    
          0.00000    
  13      13.3333         12.6671         12.0007         11.3343         10.6677         10.0011         9.33443         8.66771         8.00098         7.33424    
          6.66750         6.00075         5.33400         4.66725         4.00050         3.33375         2.66700         2.00025         1.33350        0.666750    
          0.00000    
  14      13.3333         12.6670         12.0006         11.3341         10.6676         10.0010         9.33434         8.66765         8.00094         7.33421    
          6.66748         6.00074         5.33399         4.66725         4.00050         3.33375         2.66700         2.00025         1.33350        0.666750    
          0.00000    
  15      13.3333         12.6669         12.0005         11.3341         10.6675         10.0009         9.33429         8.66762         8.00092         7.33420    
          6.66747         6.00073         5.33399         4.66724         4.00050         3.33375         2.66700         2.00025         1.33350        0.666750    
          0.00000    
1
  HEAD IN LAYER   7 AT END OF TIME STEP  10 IN STRESS PERIOD    1
  ---------------------------------------------------------------------------

                1               2               3               4               5               6               7               8               9              10
               11              12              13              14              15              16              17              18              19              20
               21
 ................................................................................................................................................................................................................................................................................................................................................
   1      13.3333         12.6670         12.0006         11.3341         10.6676         10.0010         9.33432         8.66764         8.00094         7.33421    
          6.66748         6.00074         5.33399         4.66725         4.00050         3.33375         2.66700         2.00025         1.33350        0.666750    
          0.00000    
   2      13.3333         12.6670         12.0006         11.3342         10.6676         10.0010         9.33437         8.66768         8.00096         7.33423    
          6.66749         6.00075         5.33400         4.66725         4.00050         3.33375         2.66700         2.00025         1.33350        0.666750    
          0.00000    
   3      13.3333         12.6671         12.0008         11.3344         10.6678         10.0012         9.33448         8.66775         8.00101         7.33426    
          6.66751         6.00076         5.33401         4.66726         4.00050         3.33375         2.66700         2.00025         1.33350        0.666750    
          0.00000    
   4      13.3333         12.6673         12.0011         11.3347         10.6681         10.0014         9.33463         8.66786         8.00108         7.33431    
          6.66754         6.00078         5.33402         4.66726         4.00051         3.33376         2.66700         2.00025         1.33350        0.666751    
          0.00000    
   5      13.3333         12.6677         12.0018         11.3354         10.6686         10.0017         9.33483         8.66798         8.00116         7.33436    
          6.66757         6.00080         5.33403         4.66727         4.00051         3.33376         2.66701         2.00025         1.33350        0.666751    
          0.00000    
   6      13.3333         12.6686         12.0034         11.3365         10.6693         10.0021         9.33506         8.66812         8.00124         7.33441    
          6.66760         6.00082         5.33404         4.66728         4.00052         3.33376         2.66701         2.00026         1.33350        0.666751    
          0.00000    
   7      13.3333         12.6703         12.0078         11.3385         10.6701         10.0025         9.33526         8.66822         8.00130         7.33444    
          6.66762         6.00083         5.33405         4.66728         4.00052         3.33376         2.66701         2.00026         1.33350        0.666752    
          0.00000    
   8      13.3333         12.6733         12.0246         11.3417         10.6709         10.0027         9.33535         8.66827         8.00132         7.33446    
          6.66763         6.00084         5.33406         4.66729         4.00052         3.33377         2.66701         2.00026         1.33350        0.666752    
          0.00000    
   9      13.3333         12.6703         12.0078         11.3385         10.6701         10.0025         9.33526         8.66822         8.00130         7.33444    
          6.66762         6.00083         5.33405         4.66728         4.00052         3.33376         2.66701         2.00026         1.33350        0.666752    
          0.00000    
  10      13.3333         12.6686         12.0034         11.3365         10.6693         10.0021         9.33506         8.66812         8.00124         7.33441    
          6.66760         6.00082         5.33404         4.66728         4.00052         3.33376         2.66701         2.00026         1.33350        0.666751    
          0.00000    
  11      13.3333         12.6677         12.0018         11.3354         10.6686         10.0017         9.33483         8.66798         8.00116         7.33436    
          6.66757         6.00080         5.33403         4.66727         4.00051         3.33376         2.66701         2.00025         1.33350        0.666751    
          0.00000    
  12      13.3333         12.6673         12.0011         11.3347         10.6681         10.0014         9.33463         8.66786         8.00108         7.33431    
          6.66754         6.00078         5.33402         4.66726         4.00051         3.33376         2.66700         2.00025         1.33350        0.666751    
          0.00000    
  13      13.3333         12.6671         12.0008         11.3344         10.6678         10.0012         9.33448         8.66775         8.00101         7.33426    
          6.66751         6.00076         5.33401         4.66726         4.00050         3.33375         2.66700         2.00025         1.33350        0.666750    
          0.00000    
  14      13.3333         12.6670         12.0006         11.3342         10.6676         10.0010         9.33437         8.66768         8.00096         7.33423    
          6.66749         6.00075         5.33400         4.66725         4.00050         3.33375         2.66700         2.00025         1.33350        0.666750    
          0.00000    
  15      13.3333         12.6670         12.0006         11.3341         10.6676         10.0010         9.33432         8.66764         8.00093         7.33421    
          6.66748         6.00074         5.33399         4.66725         4.00050         3.33375         2.66700         2.00025         1.33350        0.666750    
          0.00000    
1
  HEAD IN LAYER   8 AT END OF TIME STEP  10 IN STRESS PERIOD    1
  ---------------------------------------------------------------------------

                1               2               3               4               5               6               7               8               9              10
               11              12              13              14              15              16              17              18              19              20
               21
 ................................................................................................................................................................................................................................................................................................................................................
   1      13.3333         12.6670         12.0006         11.3341         10.6676         10.0010         9.33434         8.66766         8.00095         7.33422    
          6.66748         6.00074         5.33400         4.66725         4.00050         3.33375         2.66700         2.00025         1.33350        0.666750    
          0.00000    
   2      13.3333         12.6670         12.0007         11.3342         10.6677         10.0011         9.33439         8.66769         8.00097         7.33424    
          6.66750         6.00075         5.33400         4.66725         4.00050         3.33375         2.66700         2.00025         1.33350        0.666750    
          0.00000    
   3      13.3333         12.6671         12.0008         11.3344         10.6679         10.0012         9.33450         8.66777         8.00103         7.33427    
          6.66752         6.00076         5.33401         4.66726         4.00051         3.33375         2.66700         2.00025         1.33350        0.666751    
          0.00000    
   4      13.3333         12.6673         12.0012         11.3348         10.6682         10.0014         9.33467         8.66788         8.00110         7.33432    
          6.66755         6.00078         5.33402         4.66727         4.00051         3.33376         2.66701         2.00025         1.33350        0.666751    
          0.00000    
   5      13.3333         12.6678         12.0019         11.3354         10.6687         10.0018         9.33489         8.66802         8.00119         7.33438    
          6.66758         6.00081         5.33404         4.66728         4.00052         3.33376         2.66701         2.00025         1.33350        0.666751    
          0.00000    
   6      13.3333         12.6685         12.0032         11.3365         10.6694         10.0022         9.33513         8.66816         8.00127         7.33443    
          6.66762         6.00083         5.33405         4.66728         4.00052         3.33376         2.66701         2.00026         1.33350        0.666752    
          0.00000    
   7      13.3333         12.6698         12.0056         11.3381         10.6702         10.0026         9.33535         8.66828         8.00133         7.33446    
          6.66764         6.00084         5.33406         4.66729         4.00053         3.33377         2.66701         2.00026         1.33350        0.666752    
          0.00000    
   8      13.3333         12.6711         12.0093         11.3396         10.6707         10.0028         9.33544         8.66833         8.00136         7.33448    
          6.66765         6.00084         5.33406         4.66729         4.00053         3.33377         2.66701         2.00026         1.33350        0.666752    
          0.00000    
   9      13.3333         12.6698         12.0056         11.3381         10.6702         10.0026         9.33535         8.66828         8.00133         7.33446    
          6.66764         6.00084         5.33406         4.66729         4.00053         3.33377         2.66701         2.00026         1.33350        0.666752    
          0.00000    
  10      13.3333         12.6685         12.0032         11.3365         10.6694         10.0022         9.33513         8.66816         8.00127         7.33443    
          6.66762         6.00083         5.33405         4.66728         4.00052         3.33376         2.66701         2.00026         1.33350        0.666752    
          0.00000    
  11      13.3333         12.6678         12.0019         11.3354         10.6687         10.0018         9.33489         8.66802         8.00119         7.33438    
          6.66758         6.00081         5.33404         4.66728         4.00052         3.33376         2.66701         2.00025         1.33350        0.666751    
          0.00000    
  12      13.3333         12.6674         12.0012         11.3348         10.6682         10.0014         9.33467         8.66788         8.00110         7.33432    
          6.66755         6.00078         5.33402         4.66727         4.00051         3.33376         2.66701         2.00025         1.33350        0.666751    
          0.00000    
  13      13.3333         12.6671         12.0008         11.3344         10.6679         10.0012         9.33450         8.66777         8.00103         7.33427    
          6.66752         6.00076         5.33401         4.66726         4.00051         3.33375         2.66700         2.00025         1.33350        0.666751    
          0.00000    
  14      13.3333         12.6670         12.0007         11.3342         10.6677         10.0011         9.33439         8.66769         8.00097         7.33424    
          6.66750         6.00075         5.33400         4.66725         4.00050         3.33375         2.66700         2.00025         1.33350        0.666750    
          0.00000    
  15      13.3333         12.6670         12.0006         11.3341         10.6676         10.0010         9.33434         8.66766         8.00095         7.33422    
          6.66748         6.00074         5.33400         4.66725         4.00050         3.33375         2.66700         2.00025         1.33350        0.666750    
          0.00000    

 HEAD WILL BE SAVED ON UNIT 1025 AT END OF TIME STEP   10, STRESS PERIOD    1


  VOLUME BUDGET FOR ENTIRE MODEL AT END OF TIME STEP   10, STRESS PERIOD   1
  ---------------------------------------------------------------------------------------------------

     CUMULATIVE VOLUME      L**3       RATES FOR THIS TIME STEP      L**3/T          PACKAGE NAME    
     ------------------                 ------------------------                     ----------------

           IN:                                      IN:
           ---                                      ---
                 WEL =          50.0000                   WEL =           0.5000     WEL-1                            
                 CHD =       39954.9999                   CHD =         399.5500     CHD-1                            

            TOTAL IN =       40004.9999              TOTAL IN =         400.0500

          OUT:                                     OUT:
          ----                                     ----
                 WEL =           0.0000                   WEL =           0.0000     WEL-1                            
                 CHD =       40004.9999                   CHD =         400.0500     CHD-1                            

           TOTAL OUT =       40004.9999             TOTAL OUT =         400.0500

            IN - OUT =       1.6179E-05              IN - OUT =       9.4847E-08

 PERCENT DISCREPANCY =           0.00     PERCENT DISCREPANCY =           0.00




         TIME SUMMARY AT END OF TIME STEP   10 IN STRESS PERIOD    1
                    SECONDS     MINUTES      HOURS       DAYS        YEARS
                    -----------------------------------------------------------
   TIME STEP LENGTH 8.64000E+05  14400.      240.00      10.000     2.73785E-02
 STRESS PERIOD TIME 8.64000E+06 1.44000E+05  2400.0      100.00     0.27379    
         TOTAL TIME 8.64000E+06 1.44000E+05  2400.0      100.00     0.27379    


end timestep

