                                   MODFLOW 6
                U.S. GEOLOGICAL SURVEY MODULAR HYDROLOGIC MODEL
                            VERSION 6.6.1 02/10/2025

   MODFLOW 6 compiled Feb 14 2025 13:40:10 with Intel(R) Fortran Intel(R) 64
   Compiler Classic for applications running on Intel(R) 64, Version 2021.7.0
                             Build 20220726_000000

This software has been approved for release by the U.S. Geological 
Survey (USGS). Although the software has been subjected to rigorous 
review, the USGS reserves the right to update the software as needed 
pursuant to further analysis and review. No warranty, expressed or 
implied, is made by the USGS or the U.S. Government as to the 
functionality of the software and related material nor shall the 
fact of release constitute any such warranty. Furthermore, the 
software is released on condition that neither the USGS nor the U.S. 
Government shall be held liable for any damages resulting from its 
authorized or unauthorized use. Also refer to the USGS Water 
Resources Software User Rights Notice for complete use, copyright, 
and distribution information.


As a work of the United States Government, this USGS product is 
in the public domain within the United States. You can copy, 
modify, distribute, and perform the work, even for commercial 
purposes, all without asking permission. Additionally, USGS 
waives copyright and related rights in the work worldwide 
through CC0 1.0 Universal Public Domain Dedication 
(https://creativecommons.org/publicdomain/zero/1.0/).

The following GNU Lesser General Public License (LGPL) libraries
are used in this USGS product:

    SPARSKIT version 2.0
      ilut, luson, and qsplit 
      (https://www-users.cse.umn.edu/~saad/software/SPARSKIT/)

    RCM - Reverse Cuthill McKee Ordering
      (https://people.math.sc.edu/Burkardt/f_src/rcm/rcm.html)

    BLAS - Basic Linear Algebra Subprograms Level 1
      (https://people.math.sc.edu/Burkardt/f_src/blas1_d/blas1_d.html)

    SPARSEKIT - Sparse Matrix Utility Package
      amux, dperm, dvperm, rperm, and cperm
      (https://people.sc.fsu.edu/~jburkardt/f77_src/sparsekit/sparsekit.html)

The following BSD-3 License libraries are used in this USGS product:

    Modern Fortran DAG Library
      Copyright (c) 2018, Jacob Williams
      All rights reserved.
      (https://github.com/jacobwilliams/daglib)

MODFLOW 6 compiler options: /O2 /heap-arrays:0 /fpe:0 /traceback /nologo /fpp
/c /module:win64\mod_mf6\ /object:win64\obj_mf6\

System command used to initiate simulation:
C:\Users\gross.DESKTOP-AIRQM2M\anaconda3\Scripts\mf6.exe

MODFLOW was compiled using uniform precision.

Real Variables
  KIND: 8
  TINY (smallest non-zero value):    2.225074-308
  HUGE (largest value):    1.797693+308
  PRECISION: 15
  SIZE IN BITS: 64

Integer Variables
  KIND: 4
  HUGE (largest value): 2147483647
  SIZE IN BITS: 32

Long Integer Variables
  KIND: 8
  HUGE (largest value): 9223372036854775807
  SIZE IN BITS: 64

Logical Variables
  KIND: 4
  SIZE IN BITS: 32
 

 OPENED mfsim.nam
 FILE TYPE:NAM6               UNIT 1001   STATUS:OLD                 
 FORMAT:FORMATTED              ACCESS:SEQUENTIAL          
 ACTION:READ                

 # File generated by Flopy version 3.8.2 on 06/20/2025 at 16:35:55.

 OPENED 08_p02.tdis
 FILE TYPE:TDIS6              UNIT 1002   STATUS:OLD                 
 FORMAT:FORMATTED              ACCESS:SEQUENTIAL          
 ACTION:READ                

 # File generated by Flopy version 3.8.2 on 06/20/2025 at 16:35:55.

 OPENED 08_p02.nam
 FILE TYPE:GWF6               UNIT 1003   STATUS:OLD                 
 FORMAT:FORMATTED              ACCESS:SEQUENTIAL          
 ACTION:READ                

 # File generated by Flopy version 3.8.2 on 06/20/2025 at 16:35:55.

 OPENED 08_p02.dis
 FILE TYPE:DIS6               UNIT 1004   STATUS:OLD                 
 FORMAT:FORMATTED              ACCESS:SEQUENTIAL          
 ACTION:READ                

 # File generated by Flopy version 3.8.2 on 06/20/2025 at 16:35:55.

 OPENED 08_p02.npf
 FILE TYPE:NPF6               UNIT 1005   STATUS:OLD                 
 FORMAT:FORMATTED              ACCESS:SEQUENTIAL          
 ACTION:READ                

 # File generated by Flopy version 3.8.2 on 06/20/2025 at 16:35:55.

 OPENED 08_p02.sto
 FILE TYPE:STO6               UNIT 1006   STATUS:OLD                 
 FORMAT:FORMATTED              ACCESS:SEQUENTIAL          
 ACTION:READ                

 # File generated by Flopy version 3.8.2 on 06/20/2025 at 16:35:55.

 OPENED 08_p02.ic
 FILE TYPE:IC6                UNIT 1007   STATUS:OLD                 
 FORMAT:FORMATTED              ACCESS:SEQUENTIAL          
 ACTION:READ                

 # File generated by Flopy version 3.8.2 on 06/20/2025 at 16:35:55.

 OPENED 08_p02.oc
 FILE TYPE:OC6       UNIT 1008   STATUS:OLD                 
 FORMAT:FORMATTED              ACCESS:SEQUENTIAL          
 ACTION:READ                


 OPENED 08_p02.rch
 FILE TYPE:RCH6               UNIT 1010   STATUS:OLD                 
 FORMAT:FORMATTED              ACCESS:SEQUENTIAL          
 ACTION:READ                

 # File generated by Flopy version 3.8.2 on 06/20/2025 at 16:35:55.

 OPENED 08_p02.chd
 FILE TYPE:CHD6               UNIT 1011   STATUS:OLD                 
 FORMAT:FORMATTED              ACCESS:SEQUENTIAL          
 ACTION:READ                

 # File generated by Flopy version 3.8.2 on 06/20/2025 at 16:35:55.

 READING SIMULATION OPTIONS
    MAXIMUM NUMBER OF ERRORS THAT WILL BE STORED IS 1000
 END OF SIMULATION OPTIONS

 READING SIMULATION TIMING

 TDIS -- TEMPORAL DISCRETIZATION PACKAGE,
 VERSION 1 : 11/13/2014 - INPUT READ FROM MEMPATH: __INPUT__/SIM/TDIS                                
 PROCESSING TDIS OPTIONS
    SIMULATION TIME UNIT IS DAYS
 END OF TDIS OPTIONS
 PROCESSING TDIS DIMENSIONS
    4 STRESS PERIOD(S) IN SIMULATION
 END OF TDIS DIMENSIONS
 PROCESSING TDIS PERIODDATA


 STRESS PERIOD     LENGTH       TIME STEPS     MULTIPLIER FOR DELT
 ----------------------------------------------------------------------------
        1         190.0000         10                    1.000
        2         518.0000          2                    1.000
        3         1921.000         17                    1.000
        4         1.000000          1                    1.000
 END OF TDIS PERIODDATA
 END OF SIMULATION TIMING

 READING SIMULATION MODELS
    GWF6 model 1 will be created
 END OF SIMULATION MODELS

 READING SIMULATION EXCHANGES
 END OF SIMULATION EXCHANGES

 READING SOLUTIONGROUP

 Creating solution: SLN_1           

 OPENED 08_p02.ims
 FILE TYPE:IMS   UNIT 1013   STATUS:OLD                 
 FORMAT:FORMATTED              ACCESS:SEQUENTIAL          
 ACTION:READ                

 END OF SOLUTIONGROUP

PROCESSING MODEL CONNECTIONS

 IMS -- ITERATIVE MODEL SOLUTION PACKAGE, VERSION 6, 4/28/2017
         INPUT READ FROM UNIT 1013
 # File generated by Flopy version 3.8.2 on 06/20/2025 at 16:35:55.

 PROCESSING IMS OPTIONS
 SIMPLE OPTION:
 DEFAULT SOLVER INPUT VALUES FOR FAST SOLUTIONS
 END OF IMS OPTIONS

 PROCESSING IMS NONLINEAR
 END OF IMS NONLINEAR DATA
 ***UNDER-RELAXATION WILL NOT BE USED***
 

 PROCESSING LINEAR DATA
 END OF LINEAR DATA
 ***IMS LINEAR SOLVER WILL BE USED***

 IMSLINEAR -- UNSTRUCTURED LINEAR SOLUTION PACKAGE, VERSION 8, 04/28/2017
 A symmetric matrix will be solved

 OUTER ITERATION CONVERGENCE CRITERION    (DVCLOSE) =    0.100000E-05
 MAXIMUM NUMBER OF OUTER ITERATIONS        (MXITER) = 500
 SOLVER PRINTOUT INDEX                     (IPRIMS) = 1
 NONLINEAR ITERATION METHOD            (NONLINMETH) = 0
 LINEAR SOLUTION METHOD                   (LINMETH) = 1

       SOLUTION BY THE        CONJUGATE-GRADIENT       METHOD
 ------------------------------------------------------------------
 MAXIMUM OF 500 CALLS OF SOLUTION ROUTINE
 MAXIMUM OF 100 INTERNAL ITERATIONS PER CALL TO SOLUTION ROUTINE
 LINEAR ACCELERATION METHOD            = CG        
 MATRIX PRECONDITIONING TYPE           = INCOMPLETE LU       
 MATRIX SCALING APPROACH               = NO SCALING          
 MATRIX REORDERING APPROACH            = ORIGINAL ORDERING        
 NUMBER OF ORTHOGONALIZATIONS          = 0
 HEAD CHANGE CRITERION FOR CLOSURE     =    0.10000E-05
 RESIDUAL CHANGE CRITERION FOR CLOSURE =    0.10000E+04
 RESIDUAL CONVERGENCE OPTION           = 0
 RESIDUAL CONVERGENCE NORM             = INFINITY NORM   
 RELAXATION FACTOR                     =    0.00000E+00



 
    Solving:  Stress period:     1    Time step:     1
 
1
 STRESS PERIOD NO. 1, LENGTH =   190.0000    
 ------------------------------------------
 NUMBER OF TIME STEPS = 10
 MULTIPLIER FOR DELT =     1.000
 INITIAL TIME STEP SIZE =   19.00000    

 SLN_1 OUTER ITERATION SUMMARY
 ----------------------------------------------------------------------------------------------------------
                                OUTER      INNER                    STEP   MAXIMUM CHANGE MODEL-(CELLID) OR
 OUTER ITERATION STEP       ITERATION  ITERATION  MAXIMUM CHANGE SUCCESS             MODEL-PACKAGE-(NUMBER)
 ----------------------------------------------------------------------------------------------------------
 Model                              1         67       25.635775                             1_GWF-(10,1,1)
 Model                              2         55      -22.033273                             1_GWF-(10,1,1)
 Model                              3         16 -5.84449525E-02                              1_GWF-(9,1,1)
 Model                              4          7 -2.27131823E-03                              1_GWF-(9,2,2)
 Model                              5          5 -8.20306497E-05                              1_GWF-(9,2,2)
 Model                              6          2 -2.70992374E-06                              1_GWF-(9,2,2)
 Model                              7          1  4.17202525E-07       *                     1_GWF-(11,1,1)
 ----------------------------------------------------------------------------------------------------------


 7 CALLS TO NUMERICAL SOLUTION IN TIME STEP 1 STRESS PERIOD 1
 153 TOTAL ITERATIONS
 
    Solving:  Stress period:     1    Time step:     2
 

 SLN_1 OUTER ITERATION SUMMARY
 ----------------------------------------------------------------------------------------------------------
                                OUTER      INNER                    STEP   MAXIMUM CHANGE MODEL-(CELLID) OR
 OUTER ITERATION STEP       ITERATION  ITERATION  MAXIMUM CHANGE SUCCESS             MODEL-PACKAGE-(NUMBER)
 ----------------------------------------------------------------------------------------------------------
 Model                              1         15       2.9707799                              1_GWF-(9,1,1)
 Model                              2         14       1.5200572                              1_GWF-(8,1,1)
 Model                              3         10  4.09920390E-02                              1_GWF-(9,2,2)
 Model                              4          7 -6.17861760E-04                              1_GWF-(9,2,2)
 Model                              5          4 -3.10187481E-05                              1_GWF-(9,2,2)
 Model                              6          1 -9.71827887E-07       *                      1_GWF-(9,2,2)
 ----------------------------------------------------------------------------------------------------------


 6 CALLS TO NUMERICAL SOLUTION IN TIME STEP 2 STRESS PERIOD 1
 51 TOTAL ITERATIONS
 
    Solving:  Stress period:     1    Time step:     3
 

 SLN_1 OUTER ITERATION SUMMARY
 ----------------------------------------------------------------------------------------------------------
                                OUTER      INNER                    STEP   MAXIMUM CHANGE MODEL-(CELLID) OR
 OUTER ITERATION STEP       ITERATION  ITERATION  MAXIMUM CHANGE SUCCESS             MODEL-PACKAGE-(NUMBER)
 ----------------------------------------------------------------------------------------------------------
 Model                              1         18       2.5004982                              1_GWF-(9,1,1)
 Model                              2         13       1.6395385                              1_GWF-(8,2,2)
 Model                              3         10  4.77313816E-02                              1_GWF-(8,2,2)
 Model                              4          6 -4.99538318E-04                              1_GWF-(8,2,1)
 Model                              5          2  5.24966400E-06                              1_GWF-(8,1,1)
 Model                              6          1 -2.82799537E-07       *                      1_GWF-(9,2,2)
 ----------------------------------------------------------------------------------------------------------


 6 CALLS TO NUMERICAL SOLUTION IN TIME STEP 3 STRESS PERIOD 1
 50 TOTAL ITERATIONS
 
    Solving:  Stress period:     1    Time step:     4
 

 SLN_1 OUTER ITERATION SUMMARY
 ----------------------------------------------------------------------------------------------------------
                                OUTER      INNER                    STEP   MAXIMUM CHANGE MODEL-(CELLID) OR
 OUTER ITERATION STEP       ITERATION  ITERATION  MAXIMUM CHANGE SUCCESS             MODEL-PACKAGE-(NUMBER)
 ----------------------------------------------------------------------------------------------------------
 Model                              1         21       1.8323129                              1_GWF-(8,1,1)
 Model                              2         13      0.87272280                              1_GWF-(7,1,1)
 Model                              3          7 -2.34963792E-03                              1_GWF-(8,2,2)
 Model                              4          5  4.55586943E-05                              1_GWF-(9,2,1)
 Model                              5          2  1.95506510E-06                              1_GWF-(9,2,2)
 Model                              6          1  1.89409928E-07       *                     1_GWF-(13,1,3)
 ----------------------------------------------------------------------------------------------------------


 6 CALLS TO NUMERICAL SOLUTION IN TIME STEP 4 STRESS PERIOD 1
 49 TOTAL ITERATIONS
 
    Solving:  Stress period:     1    Time step:     5
 

 SLN_1 OUTER ITERATION SUMMARY
 ----------------------------------------------------------------------------------------------------------
                                OUTER      INNER                    STEP   MAXIMUM CHANGE MODEL-(CELLID) OR
 OUTER ITERATION STEP       ITERATION  ITERATION  MAXIMUM CHANGE SUCCESS             MODEL-PACKAGE-(NUMBER)
 ----------------------------------------------------------------------------------------------------------
 Model                              1         24       1.6871897                              1_GWF-(8,1,1)
 Model                              2         14      0.87279296                              1_GWF-(7,1,2)
 Model                              3          9 -3.90759738E-02                              1_GWF-(7,1,1)
 Model                              4          6 -3.92363298E-04                              1_GWF-(7,1,1)
 Model                              5          2 -2.98690698E-06                              1_GWF-(7,1,1)
 Model                              6          1  2.23600843E-07       *                     1_GWF-(12,1,1)
 ----------------------------------------------------------------------------------------------------------


 6 CALLS TO NUMERICAL SOLUTION IN TIME STEP 5 STRESS PERIOD 1
 56 TOTAL ITERATIONS
 
    Solving:  Stress period:     1    Time step:     6
 

 SLN_1 OUTER ITERATION SUMMARY
 ----------------------------------------------------------------------------------------------------------
                                OUTER      INNER                    STEP   MAXIMUM CHANGE MODEL-(CELLID) OR
 OUTER ITERATION STEP       ITERATION  ITERATION  MAXIMUM CHANGE SUCCESS             MODEL-PACKAGE-(NUMBER)
 ----------------------------------------------------------------------------------------------------------
 Model                              1         26       1.2948724                              1_GWF-(8,2,1)
 Model                              2         13      0.31938755                              1_GWF-(8,1,3)
 Model                              3         13     -0.67525076                              1_GWF-(8,2,2)
 Model                              4         10  3.15394654E-02                              1_GWF-(7,2,2)
 Model                              5          6  9.15431209E-04                              1_GWF-(7,2,2)
 Model                              6          4  2.85048492E-05                              1_GWF-(7,2,2)
 Model                              7          2 -2.90033068E-06                              1_GWF-(8,3,1)
 Model                              8          1  4.79663193E-07       *                      1_GWF-(8,2,1)
 ----------------------------------------------------------------------------------------------------------


 8 CALLS TO NUMERICAL SOLUTION IN TIME STEP 6 STRESS PERIOD 1
 75 TOTAL ITERATIONS
 
    Solving:  Stress period:     1    Time step:     7
 

 SLN_1 OUTER ITERATION SUMMARY
 ----------------------------------------------------------------------------------------------------------
                                OUTER      INNER                    STEP   MAXIMUM CHANGE MODEL-(CELLID) OR
 OUTER ITERATION STEP       ITERATION  ITERATION  MAXIMUM CHANGE SUCCESS             MODEL-PACKAGE-(NUMBER)
 ----------------------------------------------------------------------------------------------------------
 Model                              1         28       1.0994859                              1_GWF-(8,2,2)
 Model                              2         13      0.31710496                              1_GWF-(9,3,2)
 Model                              3         13     -0.27450252                              1_GWF-(9,3,2)
 Model                              4         11 -4.40603431E-02                              1_GWF-(8,2,2)
 Model                              5          9 -5.96668674E-03                              1_GWF-(8,2,2)
 Model                              6          7 -6.80635844E-04                              1_GWF-(8,2,2)
 Model                              7          5 -7.47693499E-05                              1_GWF-(8,2,2)
 Model                              8          2 -7.98250376E-06                              1_GWF-(8,2,2)
 Model                              9          1 -9.63037920E-07       *                      1_GWF-(8,2,2)
 ----------------------------------------------------------------------------------------------------------


 9 CALLS TO NUMERICAL SOLUTION IN TIME STEP 7 STRESS PERIOD 1
 89 TOTAL ITERATIONS
 
    Solving:  Stress period:     1    Time step:     8
 

 SLN_1 OUTER ITERATION SUMMARY
 ----------------------------------------------------------------------------------------------------------
                                OUTER      INNER                    STEP   MAXIMUM CHANGE MODEL-(CELLID) OR
 OUTER ITERATION STEP       ITERATION  ITERATION  MAXIMUM CHANGE SUCCESS             MODEL-PACKAGE-(NUMBER)
 ----------------------------------------------------------------------------------------------------------
 Model                              1         29      0.87482065                              1_GWF-(7,1,1)
 Model                              2         12      0.30541785                              1_GWF-(7,1,1)
 Model                              3         14     -0.79480557                              1_GWF-(7,1,1)
 Model                              4         10  1.99663958E-02                              1_GWF-(7,1,1)
 Model                              5          7  4.31627875E-04                              1_GWF-(8,2,2)
 Model                              6          4  3.13901318E-05                              1_GWF-(8,2,2)
 Model                              7          2  2.45410320E-06                              1_GWF-(8,2,2)
 Model                              8          1  2.33276118E-07       *                      1_GWF-(8,2,2)
 ----------------------------------------------------------------------------------------------------------


 8 CALLS TO NUMERICAL SOLUTION IN TIME STEP 8 STRESS PERIOD 1
 79 TOTAL ITERATIONS
 
    Solving:  Stress period:     1    Time step:     9
 

 SLN_1 OUTER ITERATION SUMMARY
 ----------------------------------------------------------------------------------------------------------
                                OUTER      INNER                    STEP   MAXIMUM CHANGE MODEL-(CELLID) OR
 OUTER ITERATION STEP       ITERATION  ITERATION  MAXIMUM CHANGE SUCCESS             MODEL-PACKAGE-(NUMBER)
 ----------------------------------------------------------------------------------------------------------
 Model                              1         30      0.64606849                              1_GWF-(7,2,2)
 Model                              2         12      0.26641405                              1_GWF-(7,1,1)
 Model                              3          9 -7.34942656E-03                              1_GWF-(8,2,2)
 Model                              4          7 -5.33945191E-04                              1_GWF-(8,2,2)
 Model                              5          4 -3.47809276E-05                              1_GWF-(8,2,2)
 Model                              6          2 -2.26916790E-06                              1_GWF-(8,2,2)
 Model                              7          1 -2.49705714E-07       *                     1_GWF-(14,1,1)
 ----------------------------------------------------------------------------------------------------------


 7 CALLS TO NUMERICAL SOLUTION IN TIME STEP 9 STRESS PERIOD 1
 65 TOTAL ITERATIONS
 
    Solving:  Stress period:     1    Time step:    10
 

 SLN_1 OUTER ITERATION SUMMARY
 ----------------------------------------------------------------------------------------------------------
                                OUTER      INNER                    STEP   MAXIMUM CHANGE MODEL-(CELLID) OR
 OUTER ITERATION STEP       ITERATION  ITERATION  MAXIMUM CHANGE SUCCESS             MODEL-PACKAGE-(NUMBER)
 ----------------------------------------------------------------------------------------------------------
 Model                              1         33      0.74939168                              1_GWF-(6,1,1)
 Model                              2         13      0.21638512                              1_GWF-(9,3,3)
 Model                              3         13     -0.16781096                              1_GWF-(9,3,3)
 Model                              4         10  5.74179672E-03                              1_GWF-(8,3,3)
 Model                              5          7  4.29243479E-04                              1_GWF-(8,3,3)
 Model                              6          5  4.43111786E-05                              1_GWF-(8,2,2)
 Model                              7          2  3.88487074E-06                              1_GWF-(8,2,2)
 Model                              8          1  4.32157208E-07       *                      1_GWF-(8,2,2)
 ----------------------------------------------------------------------------------------------------------


 8 CALLS TO NUMERICAL SOLUTION IN TIME STEP 10 STRESS PERIOD 1
 84 TOTAL ITERATIONS
 
    Solving:  Stress period:     2    Time step:     1
 
1
 STRESS PERIOD NO. 2, LENGTH =   518.0000    
 ------------------------------------------
 NUMBER OF TIME STEPS = 2
 MULTIPLIER FOR DELT =     1.000
 INITIAL TIME STEP SIZE =   259.0000    

 SLN_1 OUTER ITERATION SUMMARY
 ----------------------------------------------------------------------------------------------------------
                                OUTER      INNER                    STEP   MAXIMUM CHANGE MODEL-(CELLID) OR
 OUTER ITERATION STEP       ITERATION  ITERATION  MAXIMUM CHANGE SUCCESS             MODEL-PACKAGE-(NUMBER)
 ----------------------------------------------------------------------------------------------------------
 Model                              1         71       5.9852031                              1_GWF-(6,1,1)
 Model                              2         69       4.8716884                              1_GWF-(6,1,2)
 Model                              3         59      -1.0979680                              1_GWF-(6,1,1)
 Model                              4         55      0.13440559                              1_GWF-(6,1,2)
 Model                              5         36 -1.11472241E-02                              1_GWF-(6,1,1)
 Model                              6         11  4.91604365E-04                              1_GWF-(6,1,1)
 Model                              7          6  1.70300051E-05                              1_GWF-(6,2,2)
 Model                              8          3 -2.98767632E-06                              1_GWF-(7,1,2)
 Model                              9          1 -6.18123060E-07       *                      1_GWF-(7,2,2)
 ----------------------------------------------------------------------------------------------------------


 9 CALLS TO NUMERICAL SOLUTION IN TIME STEP 1 STRESS PERIOD 2
 311 TOTAL ITERATIONS
 
    Solving:  Stress period:     2    Time step:     2
 

 SLN_1 OUTER ITERATION SUMMARY
 ----------------------------------------------------------------------------------------------------------
                                OUTER      INNER                    STEP   MAXIMUM CHANGE MODEL-(CELLID) OR
 OUTER ITERATION STEP       ITERATION  ITERATION  MAXIMUM CHANGE SUCCESS             MODEL-PACKAGE-(NUMBER)
 ----------------------------------------------------------------------------------------------------------
 Model                              1         68       3.0163091                              1_GWF-(6,1,1)
 Model                              2         66       2.2548921                              1_GWF-(5,1,2)
 Model                              3         57     -0.33664694                              1_GWF-(5,1,1)
 Model                              4         49  3.78642091E-02                              1_GWF-(5,1,1)
 Model                              5         19 -3.49943946E-03                              1_GWF-(5,1,1)
 Model                              6         11  1.58992965E-04                              1_GWF-(5,1,1)
 Model                              7          7  1.70480051E-05                              1_GWF-(5,2,2)
 Model                              8          2 -1.34304247E-06                              1_GWF-(5,1,1)
 Model                              9          1 -1.91702306E-07       *                      1_GWF-(5,2,2)
 ----------------------------------------------------------------------------------------------------------


 9 CALLS TO NUMERICAL SOLUTION IN TIME STEP 2 STRESS PERIOD 2
 280 TOTAL ITERATIONS
 
    Solving:  Stress period:     3    Time step:     1
 
1
 STRESS PERIOD NO. 3, LENGTH =   1921.000    
 ------------------------------------------
 NUMBER OF TIME STEPS = 17
 MULTIPLIER FOR DELT =     1.000
 INITIAL TIME STEP SIZE =   113.0000    

 SLN_1 OUTER ITERATION SUMMARY
 ----------------------------------------------------------------------------------------------------------
                                OUTER      INNER                    STEP   MAXIMUM CHANGE MODEL-(CELLID) OR
 OUTER ITERATION STEP       ITERATION  ITERATION  MAXIMUM CHANGE SUCCESS             MODEL-PACKAGE-(NUMBER)
 ----------------------------------------------------------------------------------------------------------
 Model                              1         63       1.0397944                              1_GWF-(6,2,2)
 Model                              2         61      0.81943333                              1_GWF-(8,2,7)
 Model                              3         41     -0.10288008                              1_GWF-(6,2,1)
 Model                              4         19 -1.72080973E-02                              1_GWF-(6,1,2)
 Model                              5         15 -2.98303032E-03                              1_GWF-(6,2,1)
 Model                              6         11 -4.72377601E-04                              1_GWF-(6,1,2)
 Model                              7          7 -7.35316765E-05                              1_GWF-(6,1,2)
 Model                              8          5 -1.17718946E-05                              1_GWF-(6,2,1)
 Model                              9          2  1.67906225E-06                              1_GWF-(6,3,1)
 Model                             10          1 -3.87506986E-07       *                      1_GWF-(6,2,1)
 ----------------------------------------------------------------------------------------------------------


 10 CALLS TO NUMERICAL SOLUTION IN TIME STEP 1 STRESS PERIOD 3
 225 TOTAL ITERATIONS
 
    Solving:  Stress period:     3    Time step:     2
 

 SLN_1 OUTER ITERATION SUMMARY
 ----------------------------------------------------------------------------------------------------------
                                OUTER      INNER                    STEP   MAXIMUM CHANGE MODEL-(CELLID) OR
 OUTER ITERATION STEP       ITERATION  ITERATION  MAXIMUM CHANGE SUCCESS             MODEL-PACKAGE-(NUMBER)
 ----------------------------------------------------------------------------------------------------------
 Model                              1         59      0.82840726                              1_GWF-(7,1,3)
 Model                              2         46      0.59412397                              1_GWF-(8,4,7)
 Model                              3         30 -8.74912970E-02                              1_GWF-(6,2,2)
 Model                              4         17 -1.24472989E-02                              1_GWF-(5,2,2)
 Model                              5         13 -2.16130847E-03                              1_GWF-(6,2,2)
 Model                              6         10 -3.71152017E-04                              1_GWF-(6,2,2)
 Model                              7          6 -6.08357557E-05                              1_GWF-(6,2,2)
 Model                              8          2 -9.16025065E-06                              1_GWF-(6,2,2)
 Model                              9          2 -2.28384684E-06                              1_GWF-(6,2,2)
 Model                             10          1 -3.81564341E-07       *                     1_GWF-(10,1,1)
 ----------------------------------------------------------------------------------------------------------


 10 CALLS TO NUMERICAL SOLUTION IN TIME STEP 2 STRESS PERIOD 3
 186 TOTAL ITERATIONS
 
    Solving:  Stress period:     3    Time step:     3
 

 SLN_1 OUTER ITERATION SUMMARY
 ----------------------------------------------------------------------------------------------------------
                                OUTER      INNER                    STEP   MAXIMUM CHANGE MODEL-(CELLID) OR
 OUTER ITERATION STEP       ITERATION  ITERATION  MAXIMUM CHANGE SUCCESS             MODEL-PACKAGE-(NUMBER)
 ----------------------------------------------------------------------------------------------------------
 Model                              1         59      0.81468204                              1_GWF-(5,1,1)
 Model                              2         49       1.0346052                              1_GWF-(4,1,1)
 Model                              3         21  4.13098354E-02                              1_GWF-(7,2,5)
 Model                              4         17  3.98117608E-03                              1_GWF-(6,2,2)
 Model                              5          9  2.24639788E-04                              1_GWF-(5,2,2)
 Model                              6          4  1.30572571E-05                              1_GWF-(6,2,3)
 Model                              7          2 -3.18796132E-06                              1_GWF-(6,2,2)
 Model                              8          1 -4.27063853E-07       *                      1_GWF-(5,2,2)
 ----------------------------------------------------------------------------------------------------------


 8 CALLS TO NUMERICAL SOLUTION IN TIME STEP 3 STRESS PERIOD 3
 162 TOTAL ITERATIONS
 
    Solving:  Stress period:     3    Time step:     4
 

 SLN_1 OUTER ITERATION SUMMARY
 ----------------------------------------------------------------------------------------------------------
                                OUTER      INNER                    STEP   MAXIMUM CHANGE MODEL-(CELLID) OR
 OUTER ITERATION STEP       ITERATION  ITERATION  MAXIMUM CHANGE SUCCESS             MODEL-PACKAGE-(NUMBER)
 ----------------------------------------------------------------------------------------------------------
 Model                              1         59      0.72272618                              1_GWF-(4,1,1)
 Model                              2         58      0.61084922                              1_GWF-(8,8,4)
 Model                              3         36  2.49747130E-02                              1_GWF-(7,3,5)
 Model                              4         13 -1.46476165E-03                              1_GWF-(7,4,3)
 Model                              5          7  7.55872742E-05                              1_GWF-(7,3,3)
 Model                              6          2 -5.17617967E-06                              1_GWF-(5,2,2)
 Model                              7          1 -5.65175732E-07       *                      1_GWF-(9,1,1)
 ----------------------------------------------------------------------------------------------------------


 7 CALLS TO NUMERICAL SOLUTION IN TIME STEP 4 STRESS PERIOD 3
 176 TOTAL ITERATIONS
 
    Solving:  Stress period:     3    Time step:     5
 

 SLN_1 OUTER ITERATION SUMMARY
 ----------------------------------------------------------------------------------------------------------
                                OUTER      INNER                    STEP   MAXIMUM CHANGE MODEL-(CELLID) OR
 OUTER ITERATION STEP       ITERATION  ITERATION  MAXIMUM CHANGE SUCCESS             MODEL-PACKAGE-(NUMBER)
 ----------------------------------------------------------------------------------------------------------
 Model                              1         58      0.54879862                              1_GWF-(7,3,5)
 Model                              2         53      0.57206474                              1_GWF-(8,5,8)
 Model                              3         22  2.37230175E-02                              1_GWF-(5,1,2)
 Model                              4         14 -1.37293230E-03                              1_GWF-(5,1,1)
 Model                              5          7 -9.38240287E-05                              1_GWF-(5,2,2)
 Model                              6          2 -6.50305153E-06                              1_GWF-(5,2,2)
 Model                              7          1 -6.25209623E-07       *                      1_GWF-(8,1,1)
 ----------------------------------------------------------------------------------------------------------


 7 CALLS TO NUMERICAL SOLUTION IN TIME STEP 5 STRESS PERIOD 3
 157 TOTAL ITERATIONS
 
    Solving:  Stress period:     3    Time step:     6
 

 SLN_1 OUTER ITERATION SUMMARY
 ----------------------------------------------------------------------------------------------------------
                                OUTER      INNER                    STEP   MAXIMUM CHANGE MODEL-(CELLID) OR
 OUTER ITERATION STEP       ITERATION  ITERATION  MAXIMUM CHANGE SUCCESS             MODEL-PACKAGE-(NUMBER)
 ----------------------------------------------------------------------------------------------------------
 Model                              1         58      0.59709617                              1_GWF-(7,3,3)
 Model                              2         57      0.58426324                              1_GWF-(7,6,1)
 Model                              3         36 -3.89539076E-02                              1_GWF-(7,5,1)
 Model                              4         16  3.57586031E-03                              1_GWF-(6,3,3)
 Model                              5         11  3.62822354E-04                              1_GWF-(6,3,3)
 Model                              6          5 -3.76392431E-05                              1_GWF-(6,2,3)
 Model                              7          2  4.09575220E-06                              1_GWF-(6,2,2)
 Model                              8          1  6.07861601E-07       *                      1_GWF-(5,2,2)
 ----------------------------------------------------------------------------------------------------------


 8 CALLS TO NUMERICAL SOLUTION IN TIME STEP 6 STRESS PERIOD 3
 186 TOTAL ITERATIONS
 
    Solving:  Stress period:     3    Time step:     7
 

 SLN_1 OUTER ITERATION SUMMARY
 ----------------------------------------------------------------------------------------------------------
                                OUTER      INNER                    STEP   MAXIMUM CHANGE MODEL-(CELLID) OR
 OUTER ITERATION STEP       ITERATION  ITERATION  MAXIMUM CHANGE SUCCESS             MODEL-PACKAGE-(NUMBER)
 ----------------------------------------------------------------------------------------------------------
 Model                              1         56      0.52404614                              1_GWF-(7,6,1)
 Model                              2         44       1.0854123                              1_GWF-(4,1,2)
 Model                              3         20 -7.84028925E-02                              1_GWF-(4,1,1)
 Model                              4         15 -5.86420840E-03                              1_GWF-(6,1,3)
 Model                              5          7 -5.68228017E-04                              1_GWF-(6,3,1)
 Model                              6          5 -4.55288152E-05                              1_GWF-(6,1,3)
 Model                              7          2 -3.52595396E-06                              1_GWF-(6,3,1)
 Model                              8          1  4.86360655E-07       *                      1_GWF-(6,1,2)
 ----------------------------------------------------------------------------------------------------------


 8 CALLS TO NUMERICAL SOLUTION IN TIME STEP 7 STRESS PERIOD 3
 150 TOTAL ITERATIONS
 
    Solving:  Stress period:     3    Time step:     8
 

 SLN_1 OUTER ITERATION SUMMARY
 ----------------------------------------------------------------------------------------------------------
                                OUTER      INNER                    STEP   MAXIMUM CHANGE MODEL-(CELLID) OR
 OUTER ITERATION STEP       ITERATION  ITERATION  MAXIMUM CHANGE SUCCESS             MODEL-PACKAGE-(NUMBER)
 ----------------------------------------------------------------------------------------------------------
 Model                              1         56      0.57110004                              1_GWF-(4,1,2)
 Model                              2         45      0.48626223                              1_GWF-(7,6,3)
 Model                              3         20  2.73329548E-02                              1_GWF-(7,6,3)
 Model                              4         12 -1.83523380E-03                              1_GWF-(6,3,2)
 Model                              5          6 -1.71721820E-04                              1_GWF-(6,2,3)
 Model                              6          4 -1.87727724E-05                              1_GWF-(6,3,3)
 Model                              7          2 -2.06600538E-06                              1_GWF-(6,3,3)
 Model                              8          1  3.00134985E-07       *                      1_GWF-(8,1,1)
 ----------------------------------------------------------------------------------------------------------


 8 CALLS TO NUMERICAL SOLUTION IN TIME STEP 8 STRESS PERIOD 3
 146 TOTAL ITERATIONS
 
    Solving:  Stress period:     3    Time step:     9
 

 SLN_1 OUTER ITERATION SUMMARY
 ----------------------------------------------------------------------------------------------------------
                                OUTER      INNER                    STEP   MAXIMUM CHANGE MODEL-(CELLID) OR
 OUTER ITERATION STEP       ITERATION  ITERATION  MAXIMUM CHANGE SUCCESS             MODEL-PACKAGE-(NUMBER)
 ----------------------------------------------------------------------------------------------------------
 Model                              1         56      0.45490805                              1_GWF-(7,3,6)
 Model                              2         55      0.35836802                              1_GWF-(7,5,5)
 Model                              3         33  2.08888312E-02                              1_GWF-(7,5,5)
 Model                              4         12  8.02166113E-04                              1_GWF-(7,5,5)
 Model                              5          6 -3.33728387E-05                              1_GWF-(7,4,5)
 Model                              6          2  1.41394198E-06                              1_GWF-(7,4,4)
 Model                              7          1 -1.29073889E-07       *                     1_GWF-(10,4,3)
 ----------------------------------------------------------------------------------------------------------


 7 CALLS TO NUMERICAL SOLUTION IN TIME STEP 9 STRESS PERIOD 3
 165 TOTAL ITERATIONS
 
    Solving:  Stress period:     3    Time step:    10
 

 SLN_1 OUTER ITERATION SUMMARY
 ----------------------------------------------------------------------------------------------------------
                                OUTER      INNER                    STEP   MAXIMUM CHANGE MODEL-(CELLID) OR
 OUTER ITERATION STEP       ITERATION  ITERATION  MAXIMUM CHANGE SUCCESS             MODEL-PACKAGE-(NUMBER)
 ----------------------------------------------------------------------------------------------------------
 Model                              1         54      0.40110467                              1_GWF-(7,5,5)
 Model                              2         42      0.41616765                              1_GWF-(7,6,4)
 Model                              3         21  2.27843685E-02                              1_GWF-(7,4,6)
 Model                              4         15 -1.46960724E-03                              1_GWF-(7,1,6)
 Model                              5          9 -5.32320334E-05                              1_GWF-(7,6,1)
 Model                              6          2 -2.24654126E-06                              1_GWF-(6,2,3)
 Model                              7          1 -1.77307875E-07       *                      1_GWF-(6,2,3)
 ----------------------------------------------------------------------------------------------------------


 7 CALLS TO NUMERICAL SOLUTION IN TIME STEP 10 STRESS PERIOD 3
 144 TOTAL ITERATIONS
 
    Solving:  Stress period:     3    Time step:    11
 

 SLN_1 OUTER ITERATION SUMMARY
 ----------------------------------------------------------------------------------------------------------
                                OUTER      INNER                    STEP   MAXIMUM CHANGE MODEL-(CELLID) OR
 OUTER ITERATION STEP       ITERATION  ITERATION  MAXIMUM CHANGE SUCCESS             MODEL-PACKAGE-(NUMBER)
 ----------------------------------------------------------------------------------------------------------
 Model                              1         54      0.38705808                              1_GWF-(7,1,7)
 Model                              2         48       1.0084852                              1_GWF-(4,2,2)
 Model                              3         30      0.19203809                             1_GWF-(8,11,5)
 Model                              4         15  4.72487486E-03                             1_GWF-(8,11,5)
 Model                              5          9 -1.12250610E-04                             1_GWF-(8,10,5)
 Model                              6          2  2.76505100E-06                              1_GWF-(4,1,1)
 Model                              7          1  2.39502711E-07       *                     1_GWF-(10,1,1)
 ----------------------------------------------------------------------------------------------------------


 7 CALLS TO NUMERICAL SOLUTION IN TIME STEP 11 STRESS PERIOD 3
 159 TOTAL ITERATIONS
 
    Solving:  Stress period:     3    Time step:    12
 

 SLN_1 OUTER ITERATION SUMMARY
 ----------------------------------------------------------------------------------------------------------
                                OUTER      INNER                    STEP   MAXIMUM CHANGE MODEL-(CELLID) OR
 OUTER ITERATION STEP       ITERATION  ITERATION  MAXIMUM CHANGE SUCCESS             MODEL-PACKAGE-(NUMBER)
 ----------------------------------------------------------------------------------------------------------
 Model                              1         54      0.46166549                              1_GWF-(4,2,2)
 Model                              2         53      0.36906221                             1_GWF-(8,10,7)
 Model                              3         33  4.93375829E-02                              1_GWF-(5,3,1)
 Model                              4         19 -1.08866511E-02                              1_GWF-(5,2,1)
 Model                              5         14 -1.91301181E-03                              1_GWF-(5,1,2)
 Model                              6         11 -3.51873662E-04                              1_GWF-(5,2,1)
 Model                              7          7 -6.42341453E-05                              1_GWF-(5,2,1)
 Model                              8          5 -1.18714067E-05                              1_GWF-(5,1,2)
 Model                              9          2  2.02816415E-06                              1_GWF-(5,1,3)
 Model                             10          1 -4.87925014E-07       *                      1_GWF-(5,2,1)
 ----------------------------------------------------------------------------------------------------------


 10 CALLS TO NUMERICAL SOLUTION IN TIME STEP 12 STRESS PERIOD 3
 199 TOTAL ITERATIONS
 
    Solving:  Stress period:     3    Time step:    13
 

 SLN_1 OUTER ITERATION SUMMARY
 ----------------------------------------------------------------------------------------------------------
                                OUTER      INNER                    STEP   MAXIMUM CHANGE MODEL-(CELLID) OR
 OUTER ITERATION STEP       ITERATION  ITERATION  MAXIMUM CHANGE SUCCESS             MODEL-PACKAGE-(NUMBER)
 ----------------------------------------------------------------------------------------------------------
 Model                              1         51      0.33882195                              1_GWF-(7,3,7)
 Model                              2         38      0.35334039                             1_GWF-(8,11,6)
 Model                              3         17  8.60396194E-03                             1_GWF-(8,6,11)
 Model                              4         12 -6.37880572E-04                              1_GWF-(5,1,2)
 Model                              5          8 -1.10130949E-04                              1_GWF-(5,2,1)
 Model                              6          5 -1.65734385E-05                              1_GWF-(5,1,2)
 Model                              7          2  2.37083636E-06                              1_GWF-(5,1,3)
 Model                              8          1 -5.50519658E-07       *                      1_GWF-(5,2,1)
 ----------------------------------------------------------------------------------------------------------


 8 CALLS TO NUMERICAL SOLUTION IN TIME STEP 13 STRESS PERIOD 3
 134 TOTAL ITERATIONS
 
    Solving:  Stress period:     3    Time step:    14
 

 SLN_1 OUTER ITERATION SUMMARY
 ----------------------------------------------------------------------------------------------------------
                                OUTER      INNER                    STEP   MAXIMUM CHANGE MODEL-(CELLID) OR
 OUTER ITERATION STEP       ITERATION  ITERATION  MAXIMUM CHANGE SUCCESS             MODEL-PACKAGE-(NUMBER)
 ----------------------------------------------------------------------------------------------------------
 Model                              1         50      0.33359255                              1_GWF-(8,2,8)
 Model                              2         49      0.38568726                             1_GWF-(8,10,8)
 Model                              3         20  1.76536881E-02                              1_GWF-(6,1,5)
 Model                              4         13 -1.76062460E-03                              1_GWF-(6,1,4)
 Model                              5          6 -1.35194554E-04                              1_GWF-(6,4,1)
 Model                              6          4  1.21944519E-05                              1_GWF-(5,3,1)
 Model                              7          2  2.28000072E-06                              1_GWF-(5,1,3)
 Model                              8          1 -4.63655475E-07       *                      1_GWF-(5,2,1)
 ----------------------------------------------------------------------------------------------------------


 8 CALLS TO NUMERICAL SOLUTION IN TIME STEP 14 STRESS PERIOD 3
 145 TOTAL ITERATIONS
 
    Solving:  Stress period:     3    Time step:    15
 

 SLN_1 OUTER ITERATION SUMMARY
 ----------------------------------------------------------------------------------------------------------
                                OUTER      INNER                    STEP   MAXIMUM CHANGE MODEL-(CELLID) OR
 OUTER ITERATION STEP       ITERATION  ITERATION  MAXIMUM CHANGE SUCCESS             MODEL-PACKAGE-(NUMBER)
 ----------------------------------------------------------------------------------------------------------
 Model                              1         51      0.31130415                              1_GWF-(7,4,7)
 Model                              2         45      0.29426848                             1_GWF-(8,13,1)
 Model                              3         27  1.04607242E-02                              1_GWF-(7,8,2)
 Model                              4          9 -4.91558358E-04                              1_GWF-(7,2,7)
 Model                              5          7 -4.75975993E-05                              1_GWF-(5,1,2)
 Model                              6          4 -5.65056000E-06                              1_GWF-(5,2,1)
 Model                              7          1  8.41741119E-07       *                      1_GWF-(5,3,1)
 ----------------------------------------------------------------------------------------------------------


 7 CALLS TO NUMERICAL SOLUTION IN TIME STEP 15 STRESS PERIOD 3
 144 TOTAL ITERATIONS
 
    Solving:  Stress period:     3    Time step:    16
 

 SLN_1 OUTER ITERATION SUMMARY
 ----------------------------------------------------------------------------------------------------------
                                OUTER      INNER                    STEP   MAXIMUM CHANGE MODEL-(CELLID) OR
 OUTER ITERATION STEP       ITERATION  ITERATION  MAXIMUM CHANGE SUCCESS             MODEL-PACKAGE-(NUMBER)
 ----------------------------------------------------------------------------------------------------------
 Model                              1         47      0.29678425                              1_GWF-(7,8,2)
 Model                              2         38      0.35918746                             1_GWF-(8,12,6)
 Model                              3         21  1.96257174E-02                              1_GWF-(6,5,2)
 Model                              4         14 -1.49590931E-03                              1_GWF-(6,4,2)
 Model                              5          7 -9.33450781E-05                              1_GWF-(6,2,4)
 Model                              6          2 -4.93477379E-06                              1_GWF-(6,4,2)
 Model                              7          1  3.08731771E-07       *                      1_GWF-(5,3,1)
 ----------------------------------------------------------------------------------------------------------


 7 CALLS TO NUMERICAL SOLUTION IN TIME STEP 16 STRESS PERIOD 3
 130 TOTAL ITERATIONS
 
    Solving:  Stress period:     3    Time step:    17
 

 SLN_1 OUTER ITERATION SUMMARY
 ----------------------------------------------------------------------------------------------------------
                                OUTER      INNER                    STEP   MAXIMUM CHANGE MODEL-(CELLID) OR
 OUTER ITERATION STEP       ITERATION  ITERATION  MAXIMUM CHANGE SUCCESS             MODEL-PACKAGE-(NUMBER)
 ----------------------------------------------------------------------------------------------------------
 Model                              1         46      0.28535633                              1_GWF-(7,6,6)
 Model                              2         49      0.35891861                              1_GWF-(7,3,8)
 Model                              3         27 -8.99706392E-02                              1_GWF-(5,2,2)
 Model                              4         19 -2.06123327E-02                              1_GWF-(5,2,2)
 Model                              5         14 -3.16387189E-03                              1_GWF-(4,2,2)
 Model                              6         10 -4.52852100E-04                              1_GWF-(4,2,2)
 Model                              7          6 -6.49379225E-05                              1_GWF-(4,2,2)
 Model                              8          2 -8.90234094E-06                              1_GWF-(5,2,2)
 Model                              9          2 -1.99954510E-06                              1_GWF-(5,2,2)
 Model                             10          1 -3.09482296E-07       *                     1_GWF-(11,1,1)
 ----------------------------------------------------------------------------------------------------------


 10 CALLS TO NUMERICAL SOLUTION IN TIME STEP 17 STRESS PERIOD 3
 176 TOTAL ITERATIONS
 
    Solving:  Stress period:     4    Time step:     1
 
1
 STRESS PERIOD NO. 4, LENGTH =   1.000000    
 ------------------------------------------
 NUMBER OF TIME STEPS = 1
 MULTIPLIER FOR DELT =     1.000
 INITIAL TIME STEP SIZE =   1.000000    

 SLN_1 OUTER ITERATION SUMMARY
 ----------------------------------------------------------------------------------------------------------
                                OUTER      INNER                    STEP   MAXIMUM CHANGE MODEL-(CELLID) OR
 OUTER ITERATION STEP       ITERATION  ITERATION  MAXIMUM CHANGE SUCCESS             MODEL-PACKAGE-(NUMBER)
 ----------------------------------------------------------------------------------------------------------
 Model                              1         83       13.575776                              1_GWF-(5,3,2)
 Model                              2         88       11.605085                              1_GWF-(6,4,4)
 Model                              3         88      -4.6603083                              1_GWF-(3,1,1)
 Model                              4         83     -0.87560378                              1_GWF-(4,2,3)
 Model                              5         82      0.23557448                              1_GWF-(2,1,1)
 Model                              6         70 -3.24815141E-02                              1_GWF-(2,1,1)
 Model                              7         62 -1.29299194E-03                              1_GWF-(4,3,2)
 Model                              8         30  3.48215278E-04                              1_GWF-(4,2,2)
 Model                              9         10 -5.03279722E-05                              1_GWF-(2,1,1)
 Model                             10          3  3.93747487E-06                              1_GWF-(2,1,1)
 Model                             11          1 -5.70114381E-07       *                      1_GWF-(7,1,1)
 ----------------------------------------------------------------------------------------------------------


 11 CALLS TO NUMERICAL SOLUTION IN TIME STEP 1 STRESS PERIOD 4
 600 TOTAL ITERATIONS

 MEMORY MANAGER TOTAL STORAGE BY DATA TYPE, IN MEGABYTES
 -------------------------------
                    ALLOCATED   
 DATA TYPE           MEMORY     
 -------------------------------
 Character        9.17200000E-03
 Logical          4.80000000E-05
 Integer          5.1592040     
 Real             12.355480     
 -------------------------------
 Total            17.523904     
 Virtual          0.0000000     
 -------------------------------


 
 Run end date and time (yyyy/mm/dd hh:mm:ss): 2025/06/20 16:35:59
 Elapsed run time:  3.977 Seconds
 Normal termination of simulation.
