                                   MODFLOW 6
                U.S. GEOLOGICAL SURVEY MODULAR HYDROLOGIC MODEL
                          GROUNDWATER FLOW MODEL (GWF)
                   VERSION 6.3.0 release candidate 07/30/2021
                               ***DEVELOP MODE***

   MODFLOW 6 compiled Oct 27 2021 07:53:31 with IFORT compiler (ver. 20.21.1)

This software is preliminary or provisional and is subject to 
revision. It is being provided to meet the need for timely best 
science. The software has not received final approval by the U.S. 
Geological Survey (USGS). No warranty, expressed or implied, is made 
by the USGS or the U.S. Government as to the functionality of the 
software and related material nor shall the fact of release 
constitute any such warranty. The software is provided on the 
condition that neither the USGS nor the U.S. Government shall be held 
liable for any damages resulting from the authorized or unauthorized 
use of the software.


System command used to initiate simulation:
E:\15_REPOS\00_BETAMI\bin\mf6.exe

MODFLOW was compiled using uniform precision.

Real Variables
  KIND: 8
  TINY (smallest non-zero value):    2.225074-308
  HUGE (largest value):    1.797693+308
  PRECISION: 15
  BIT SIZE: 64

Integer Variables
  KIND: 4
  HUGE (largest value): 2147483647
  BIT SIZE: 32

Long Integer Variables
  KIND: 8
  HUGE (largest value): 9223372036854775807
  BIT SIZE: 64

Logical Variables
  KIND: 4
  BIT SIZE: 32
 

 OPENED inner.dis
 FILE TYPE:DIS6                   UNIT 1013   STATUS:OLD                 
 FORMAT:FORMATTED              ACCESS:SEQUENTIAL          
 ACTION:READ                


 OPENED inner.ic
 FILE TYPE:IC6                    UNIT 1014   STATUS:OLD                 
 FORMAT:FORMATTED              ACCESS:SEQUENTIAL          
 ACTION:READ                


 OPENED inner.npf
 FILE TYPE:NPF6                   UNIT 1015   STATUS:OLD                 
 FORMAT:FORMATTED              ACCESS:SEQUENTIAL          
 ACTION:READ                


 OPENED inner.oc
 FILE TYPE:OC6                    UNIT 1016   STATUS:OLD                 
 FORMAT:FORMATTED              ACCESS:SEQUENTIAL          
 ACTION:READ                

 NAMEFILE OPTIONS:
    FLOWS WILL BE SAVED TO BUDGET FILE SPECIFIED IN OUTPUT CONTROL

 DIS -- STRUCTURED GRID DISCRETIZATION PACKAGE, VERSION 2 : 3/27/2014 - INPUT READ FROM UNIT 1013


 # File generated by Flopy version 3.9.1 on 06/21/2025 at 10:35:07.
 PROCESSING DISCRETIZATION OPTIONS
    MODEL LENGTH UNIT IS METERS
    XORIGIN SPECIFIED AS     200.000000000000    
    YORIGIN SPECIFIED AS     200.000000000000    
 END OF DISCRETIZATION OPTIONS
 PROCESSING DISCRETIZATION DIMENSIONS
    NLAY =       1
    NROW =       9
    NCOL =       9
 END OF DISCRETIZATION DIMENSIONS
 PROCESSING GRIDDATA

                     DELR =   33.33333    

                     DELC =   33.33333    

 TOP ELEVATION OF LAYER 1 =   0.000000    

   MODEL LAYER BOTTOM EL. =  -100.0000    
 END PROCESSING GRIDDATA

 NPF -- NODE PROPERTY FLOW PACKAGE, VERSION 1, 3/30/2015 INPUT READ FROM UNIT 1015


 # File generated by Flopy version 3.9.1 on 06/21/2025 at 10:35:07.
 PROCESSING NPF OPTIONS
    CELL-BY-CELL FLOW INFORMATION WILL BE SAVED TO BINARY FILE WHENEVER ICBCFL IS NOT ZERO.
    XT3D FORMULATION IS SELECTED.
    SPECIFIC DISCHARGE WILL BE CALCULATED AT CELL CENTERS AND WRITTEN TO DATA-SPDIS IN BUDGET FILE WHEN REQUESTED.
 END OF NPF OPTIONS

 IC -- INITIAL CONDITIONS PACKAGE, VERSION 8, 3/28/2015 INPUT READ FROM UNIT 1014
 # File generated by Flopy version 3.9.1 on 06/21/2025 at 10:35:07.
 PROCESSING IC OPTIONS
 END OF IC OPTIONS
 PROCESSING GRIDDATA

     INITIAL HEAD =   0.000000    
 END PROCESSING GRIDDATA
 PROCESSING GRIDDATA

                ICELLTYPE = 0

                        K =   1.000000    
 K33 not provided.  Assuming K33 = K.
 K22 not provided.  Assuming K22 = K.
 END PROCESSING GRIDDATA
XT3D IN USE, BUT ANGLE1 NOT SPECIFIED. SETTING ANGLE1 TO ZERO.

 XT3D is active.


    BINARY GRID INFORMATION WILL BE WRITTEN TO:
      UNIT NUMBER: 1024
      FILE NAME: e:\15_REPOS\00_BETAMI\00_MF6\07_ex-gwf-u1gwfgwf\ex-gwf-u1gwfgwf-s3\inner.dis.grb

 OPENED e:\15_REPOS\00_BETAMI\00_MF6\07_ex-gwf-u1gwfgwf\ex-gwf-u1gwfgwf-s3\inner.dis.grb
 FILE TYPE:DATA(BINARY)   UNIT 1024   STATUS:REPLACE             
 FORMAT:UNFORMATTED            ACCESS:STREAM              
 ACTION:READWRITE           

      THE LAST TIME STEP WILL BE PRINTED
      THE LAST TIME STEP WILL BE PRINTED
 # File generated by Flopy version 3.9.1 on 06/21/2025 at 10:35:07.

 PROCESSING OC OPTIONS

    BUDGET INFORMATION WILL BE WRITTEN TO:
      UNIT NUMBER: 1025
      FILE NAME: inner.cbc

 OPENED inner.cbc
 FILE TYPE:DATA(BINARY)   UNIT 1025   STATUS:REPLACE             
 FORMAT:UNFORMATTED            ACCESS:STREAM              
 ACTION:READWRITE           

    HEAD INFORMATION WILL BE WRITTEN TO:
      UNIT NUMBER: 1026
      FILE NAME: inner.hds

 OPENED inner.hds
 FILE TYPE:DATA(BINARY)   UNIT 1026   STATUS:REPLACE             
 FORMAT:UNFORMATTED            ACCESS:STREAM              
 ACTION:READWRITE           

 END OF OC OPTIONS

start timestep kper="1" kstp="1" mode="normal"


 BEGIN READING OUTPUT CONTROL FOR STRESS PERIOD 1
      ALL TIME STEPS WILL BE SAVED
      ALL TIME STEPS WILL BE SAVED

 END READING OUTPUT CONTROL FOR STRESS PERIOD 1
 UBDSV1 SAVING     FLOW-JA-FACE ON UNIT   1025 AT TIME STEP      1, STRESS PERIOD      1
 UBDSV06 SAVING       DATA-SPDIS IN MODEL INNER            PACKAGE NPF             CONNECTED TO MODEL INNER            PACKAGE NPF              ON UNIT   1025 AT TIME STEP      1, STRESS PERIOD      1

 HEAD WILL BE SAVED ON UNIT 1026 AT END OF TIME STEP    1, STRESS PERIOD    1


  VOLUME BUDGET FOR ENTIRE MODEL AT END OF TIME STEP    1, STRESS PERIOD   1
  ---------------------------------------------------------------------------------------------------

     CUMULATIVE VOLUME      L**3       RATES FOR THIS TIME STEP      L**3/T          PACKAGE NAME    
     ------------------                 ------------------------                     ----------------

           IN:                                      IN:
           ---                                      ---
        FLOW-JA-FACE =          50.0000          FLOW-JA-FACE =          50.0000     GWF-GWF_1       

            TOTAL IN =          50.0000              TOTAL IN =          50.0000

          OUT:                                     OUT:
          ----                                     ----
        FLOW-JA-FACE =          50.0000          FLOW-JA-FACE =          50.0000     GWF-GWF_1       

           TOTAL OUT =          50.0000             TOTAL OUT =          50.0000

            IN - OUT =       4.4284E-09              IN - OUT =       4.4284E-09

 PERCENT DISCREPANCY =           0.00     PERCENT DISCREPANCY =           0.00




         TIME SUMMARY AT END OF TIME STEP    1 IN STRESS PERIOD    1
                    SECONDS     MINUTES      HOURS       DAYS        YEARS
                    -----------------------------------------------------------
   TIME STEP LENGTH  86400.      1440.0      24.000      1.0000     2.73785E-03
 STRESS PERIOD TIME  86400.      1440.0      24.000      1.0000     2.73785E-03
         TOTAL TIME  86400.      1440.0      24.000      1.0000     2.73785E-03


end timestep

 UBDSV06 SAVING     FLOW-JA-FACE IN MODEL INNER            PACKAGE GWF-GWF_1       CONNECTED TO MODEL OUTER            PACKAGE GWF-GWF_1        ON UNIT   1025 AT TIME STEP      1, STRESS PERIOD      1

 EXG GWF-GWF_1   PERIOD      1   STEP        1
 --------------------------------------------------------------------
   NUMBER   CELLID                    RATE       NAME                
 --------------------------------------------------------------------
     1      (1,1,1)               5.5555556      LEFT                
     2      (1,2,1)               5.5555556      LEFT                
     3      (1,3,1)               5.5555556      LEFT                
     4      (1,4,1)               5.5555556      LEFT                
     5      (1,5,1)               5.5555556      LEFT                
     6      (1,6,1)               5.5555556      LEFT                
     7      (1,7,1)               5.5555556      LEFT                
     8      (1,8,1)               5.5555556      LEFT                
     9      (1,9,1)               5.5555556      LEFT                
     10     (1,9,1)               4.67907935E-11 BOTTOM              
     11     (1,9,2)               8.12751931E-11 BOTTOM              
     12     (1,9,3)               8.58060289E-11 BOTTOM              
     13     (1,9,4)               1.11111786E-10 BOTTOM              
     14     (1,9,5)               1.30323477E-10 BOTTOM              
     15     (1,9,6)               1.23151489E-10 BOTTOM              
     16     (1,9,7)               1.34421585E-10 BOTTOM              
     17     (1,9,8)               1.42408847E-10 BOTTOM              
     18     (1,9,9)               1.36100464E-10 BOTTOM              
     19     (1,1,9)              -5.5555556      RIGHT               
     20     (1,2,9)              -5.5555556      RIGHT               
     21     (1,3,9)              -5.5555556      RIGHT               
     22     (1,4,9)              -5.5555556      RIGHT               
     23     (1,5,9)              -5.5555556      RIGHT               
     24     (1,6,9)              -5.5555556      RIGHT               
     25     (1,7,9)              -5.5555556      RIGHT               
     26     (1,8,9)              -5.5555556      RIGHT               
     27     (1,9,9)              -5.5555556      RIGHT               
     28     (1,1,1)              -3.73060471E-11 TOP                 
     29     (1,1,2)              -2.06730772E-11 TOP                 
     30     (1,1,3)               3.98459044E-13 TOP                 
     31     (1,1,4)               5.31601430E-11 TOP                 
     32     (1,1,5)               8.59485972E-11 TOP                 
     33     (1,1,6)               8.47726334E-11 TOP                 
     34     (1,1,7)               8.90699736E-11 TOP                 
     35     (1,1,8)               8.77560773E-11 TOP                 
     36     (1,1,9)               1.10216170E-10 TOP                 
 --------------------------------------------------------------------


