                                   MODFLOW 6
                U.S. GEOLOGICAL SURVEY MODULAR HYDROLOGIC MODEL
                          GROUNDWATER FLOW MODEL (GWF)
                            VERSION 6.6.1 02/10/2025

   MODFLOW 6 compiled Feb 14 2025 13:40:10 with Intel(R) Fortran Intel(R) 64
   Compiler Classic for applications running on Intel(R) 64, Version 2021.7.0
                             Build 20220726_000000

This software has been approved for release by the U.S. Geological 
Survey (USGS). Although the software has been subjected to rigorous 
review, the USGS reserves the right to update the software as needed 
pursuant to further analysis and review. No warranty, expressed or 
implied, is made by the USGS or the U.S. Government as to the 
functionality of the software and related material nor shall the 
fact of release constitute any such warranty. Furthermore, the 
software is released on condition that neither the USGS nor the U.S. 
Government shall be held liable for any damages resulting from its 
authorized or unauthorized use. Also refer to the USGS Water 
Resources Software User Rights Notice for complete use, copyright, 
and distribution information.


As a work of the United States Government, this USGS product is 
in the public domain within the United States. You can copy, 
modify, distribute, and perform the work, even for commercial 
purposes, all without asking permission. Additionally, USGS 
waives copyright and related rights in the work worldwide 
through CC0 1.0 Universal Public Domain Dedication 
(https://creativecommons.org/publicdomain/zero/1.0/).

The following GNU Lesser General Public License (LGPL) libraries
are used in this USGS product:

    SPARSKIT version 2.0
      ilut, luson, and qsplit 
      (https://www-users.cse.umn.edu/~saad/software/SPARSKIT/)

    RCM - Reverse Cuthill McKee Ordering
      (https://people.math.sc.edu/Burkardt/f_src/rcm/rcm.html)

    BLAS - Basic Linear Algebra Subprograms Level 1
      (https://people.math.sc.edu/Burkardt/f_src/blas1_d/blas1_d.html)

    SPARSEKIT - Sparse Matrix Utility Package
      amux, dperm, dvperm, rperm, and cperm
      (https://people.sc.fsu.edu/~jburkardt/f77_src/sparsekit/sparsekit.html)

The following BSD-3 License libraries are used in this USGS product:

    Modern Fortran DAG Library
      Copyright (c) 2018, Jacob Williams
      All rights reserved.
      (https://github.com/jacobwilliams/daglib)

MODFLOW 6 compiler options: /O2 /heap-arrays:0 /fpe:0 /traceback /nologo /fpp
/c /module:win64\mod_mf6\ /object:win64\obj_mf6\

System command used to initiate simulation:
C:\Users\gross.DESKTOP-AIRQM2M\anaconda3\Scripts\mf6.exe

MODFLOW was compiled using uniform precision.

Real Variables
  KIND: 8
  TINY (smallest non-zero value):    2.225074-308
  HUGE (largest value):    1.797693+308
  PRECISION: 15
  SIZE IN BITS: 64

Integer Variables
  KIND: 4
  HUGE (largest value): 2147483647
  SIZE IN BITS: 32

Long Integer Variables
  KIND: 8
  HUGE (largest value): 9223372036854775807
  SIZE IN BITS: 64

Logical Variables
  KIND: 4
  SIZE IN BITS: 32
 
 NAMEFILE OPTIONS:
    FLOWS WILL BE SAVED TO BUDGET FILE SPECIFIED IN OUTPUT CONTROL
 END NAMEFILE OPTIONS:

 DIS -- STRUCTURED GRID DISCRETIZATION PACKAGE, VERSION 2 : 3/27/2014 - INPUT READ FROM MEMPATH: __INPUT__/EX-GWF-MAW-P03/DIS                      


 NPF -- NODE PROPERTY FLOW PACKAGE, VERSION 1, 3/30/2015 INPUT READ FROM MEMPATH: __INPUT__/EX-GWF-MAW-P03/NPF                      


 IC -- Initial Conditions Package, Version 8, 3/28/2015 input read from mempath: __INPUT__/EX-GWF-MAW-P03/IC                       


 Setting Discretization Options
    Model length unit [0=UND, 1=FEET, 2=METERS, 3=CENTIMETERS] set as 1
 End Setting Discretization Options

 Setting Discretization Dimensions
    NLAY = 41
    NROW = 16
    NCOL = 27
 End Setting Discretization Dimensions

 Setting Discretization Griddata
    DELR set from input file
    DELC set from input file
    TOP set from input file
    BOTM set from input file
    IDOMAIN set from input file
 End Setting Discretization Griddata


 The specified IDOMAIN results in a reduced number of cells.
 Number of user nodes: 17712
 Number of nodes in solution: 17700


 Setting NPF Options
    Specific discharge will be calculated at cell centers and written to DATA-SPDIS in budget file when requested.
 End Setting NPF Options

 Setting NPF Griddata
    ICELLTYPE set from input file
    K set from input file
    K33 set from input file
    K22 not provided.  Setting K22 = K.
 End Setting NPF Griddata


 RCH   -- RCH PACKAGE, VERSION 8, 2/22/2014 INPUT READ FROM MEMPATH: __INPUT__/EX-GWF-MAW-P03/RCHA_0                   

 PROCESSING RCH BASE OPTIONS
 END OF RCH BASE OPTIONS

 PROCESSING RCHA OPTIONS
    RECHARGE INPUT WILL BE READ AS ARRAY(S).
 END OF RCHA OPTIONS

 CHD   -- CHD PACKAGE, VERSION 8, 2/22/2014 INPUT READ FROM MEMPATH: __INPUT__/EX-GWF-MAW-P03/CHD_0                    

 PROCESSING CHD BASE OPTIONS
 END OF CHD BASE OPTIONS

 PROCESSING CHD BASE DIMENSIONS
    MAXBOUND =    1312
 END OF CHD BASE DIMENSIONS

 MAW   -- MAW PACKAGE, VERSION 8, 2/22/2014 INPUT READ FROM UNIT 1011
 # File generated by Flopy version 3.9.1 on 05/09/2025 at 15:21:25.

 PROCESSING MAW OPTIONS
    WELL STORAGE WILL NOT BE SIMULATED.

 OPENED ex-gwf-maw-p03.maw.obs
 FILE TYPE:OBS   UNIT 1014   STATUS:OLD                 
 FORMAT:FORMATTED              ACCESS:SEQUENTIAL          
 ACTION:READ                

 END OF MAW OPTIONS

 PROCESSING MAW DIMENSIONS
    NMAWWELLS = 1
 END OF MAW DIMENSIONS

 PROCESSING MAW PACKAGEDATA
 END OF MAW PACKAGEDATA


    MAXBOUND =      38

 PROCESSING MAW CONNECTIONDATA
 END OF MAW CONNECTIONDATA
    STRT set from input file
    BINARY GRID INFORMATION WILL BE WRITTEN TO:
      UNIT NUMBER: 1015
      FILE NAME: ex-gwf-maw-p03.dis.grb

 OPENED ex-gwf-maw-p03.dis.grb
 FILE TYPE:DATA(BINARY)   UNIT 1015   STATUS:REPLACE             
 FORMAT:UNFORMATTED            ACCESS:STREAM              
 ACTION:READWRITE           

      THE LAST TIME STEP WILL BE PRINTED
      THE LAST TIME STEP WILL BE PRINTED
 # File generated by Flopy version 3.9.1 on 05/09/2025 at 15:21:25.

 PROCESSING OC OPTIONS

    BUDGET INFORMATION WILL BE WRITTEN TO:
      UNIT NUMBER: 1016
      FILE NAME: ex-gwf-maw-p03.cbc

 OPENED ex-gwf-maw-p03.cbc
 FILE TYPE:DATA(BINARY)   UNIT 1016   STATUS:REPLACE             
 FORMAT:UNFORMATTED            ACCESS:STREAM              
 ACTION:READWRITE           

    HEAD INFORMATION WILL BE WRITTEN TO:
      UNIT NUMBER: 1017
      FILE NAME: ex-gwf-maw-p03.hds

 OPENED ex-gwf-maw-p03.hds
 FILE TYPE:DATA(BINARY)   UNIT 1017   STATUS:REPLACE             
 FORMAT:UNFORMATTED            ACCESS:STREAM              
 ACTION:READWRITE           

 END OF OC OPTIONS

The observation utility is active for "MAW_0"
 # File generated by Flopy version 3.9.1 on 05/09/2025 at 15:21:25.

Processing observation options:

Text output number of digits of precision set to: 10
The PRINT_INPUT option has been specified.


 OBSERVATIONS READ FROM FILE "ex-gwf-maw-p03.maw.obs"
 ----------------------------------------------------------------------------------------------------------------------------------------------------------------------------------------------------------------------------
 NAME                                     TYPE                                       TIME         LOCATION DATA                              OUTPUT FILENAME                                                                 
 ----------------------------------------------------------------------------------------------------------------------------------------------------------------------------------------------------------------------------
 H0                                       CONTINUOUS  HEAD                           ALL TIMES    "  1"                                      ex-gwf-maw-p03.maw.obs.csv                                                      
 Q00                                      CONTINUOUS  MAW                            ALL TIMES    "  1  1"                                   ex-gwf-maw-p03.maw.obs.csv                                                      
 Q01                                      CONTINUOUS  MAW                            ALL TIMES    "  1  2"                                   ex-gwf-maw-p03.maw.obs.csv                                                      
 Q02                                      CONTINUOUS  MAW                            ALL TIMES    "  1  3"                                   ex-gwf-maw-p03.maw.obs.csv                                                      
 Q03                                      CONTINUOUS  MAW                            ALL TIMES    "  1  4"                                   ex-gwf-maw-p03.maw.obs.csv                                                      
 Q04                                      CONTINUOUS  MAW                            ALL TIMES    "  1  5"                                   ex-gwf-maw-p03.maw.obs.csv                                                      
 Q05                                      CONTINUOUS  MAW                            ALL TIMES    "  1  6"                                   ex-gwf-maw-p03.maw.obs.csv                                                      
 Q06                                      CONTINUOUS  MAW                            ALL TIMES    "  1  7"                                   ex-gwf-maw-p03.maw.obs.csv                                                      
 Q07                                      CONTINUOUS  MAW                            ALL TIMES    "  1  8"                                   ex-gwf-maw-p03.maw.obs.csv                                                      
 Q08                                      CONTINUOUS  MAW                            ALL TIMES    "  1  9"                                   ex-gwf-maw-p03.maw.obs.csv                                                      
 Q09                                      CONTINUOUS  MAW                            ALL TIMES    "  1  10"                                  ex-gwf-maw-p03.maw.obs.csv                                                      
 Q10                                      CONTINUOUS  MAW                            ALL TIMES    "  1  11"                                  ex-gwf-maw-p03.maw.obs.csv                                                      
 Q11                                      CONTINUOUS  MAW                            ALL TIMES    "  1  12"                                  ex-gwf-maw-p03.maw.obs.csv                                                      
 Q12                                      CONTINUOUS  MAW                            ALL TIMES    "  1  13"                                  ex-gwf-maw-p03.maw.obs.csv                                                      
 Q13                                      CONTINUOUS  MAW                            ALL TIMES    "  1  14"                                  ex-gwf-maw-p03.maw.obs.csv                                                      
 Q14                                      CONTINUOUS  MAW                            ALL TIMES    "  1  15"                                  ex-gwf-maw-p03.maw.obs.csv                                                      
 Q15                                      CONTINUOUS  MAW                            ALL TIMES    "  1  16"                                  ex-gwf-maw-p03.maw.obs.csv                                                      
 Q16                                      CONTINUOUS  MAW                            ALL TIMES    "  1  17"                                  ex-gwf-maw-p03.maw.obs.csv                                                      
 Q17                                      CONTINUOUS  MAW                            ALL TIMES    "  1  18"                                  ex-gwf-maw-p03.maw.obs.csv                                                      
 Q18                                      CONTINUOUS  MAW                            ALL TIMES    "  1  19"                                  ex-gwf-maw-p03.maw.obs.csv                                                      
 Q19                                      CONTINUOUS  MAW                            ALL TIMES    "  1  20"                                  ex-gwf-maw-p03.maw.obs.csv                                                      
 Q20                                      CONTINUOUS  MAW                            ALL TIMES    "  1  21"                                  ex-gwf-maw-p03.maw.obs.csv                                                      
 Q21                                      CONTINUOUS  MAW                            ALL TIMES    "  1  22"                                  ex-gwf-maw-p03.maw.obs.csv                                                      
 Q22                                      CONTINUOUS  MAW                            ALL TIMES    "  1  23"                                  ex-gwf-maw-p03.maw.obs.csv                                                      
 Q23                                      CONTINUOUS  MAW                            ALL TIMES    "  1  24"                                  ex-gwf-maw-p03.maw.obs.csv                                                      
 Q24                                      CONTINUOUS  MAW                            ALL TIMES    "  1  25"                                  ex-gwf-maw-p03.maw.obs.csv                                                      
 Q25                                      CONTINUOUS  MAW                            ALL TIMES    "  1  26"                                  ex-gwf-maw-p03.maw.obs.csv                                                      
 Q26                                      CONTINUOUS  MAW                            ALL TIMES    "  1  27"                                  ex-gwf-maw-p03.maw.obs.csv                                                      
 Q27                                      CONTINUOUS  MAW                            ALL TIMES    "  1  28"                                  ex-gwf-maw-p03.maw.obs.csv                                                      
 Q28                                      CONTINUOUS  MAW                            ALL TIMES    "  1  29"                                  ex-gwf-maw-p03.maw.obs.csv                                                      
 Q29                                      CONTINUOUS  MAW                            ALL TIMES    "  1  30"                                  ex-gwf-maw-p03.maw.obs.csv                                                      
 Q30                                      CONTINUOUS  MAW                            ALL TIMES    "  1  31"                                  ex-gwf-maw-p03.maw.obs.csv                                                      
 Q31                                      CONTINUOUS  MAW                            ALL TIMES    "  1  32"                                  ex-gwf-maw-p03.maw.obs.csv                                                      
 Q32                                      CONTINUOUS  MAW                            ALL TIMES    "  1  33"                                  ex-gwf-maw-p03.maw.obs.csv                                                      
 Q33                                      CONTINUOUS  MAW                            ALL TIMES    "  1  34"                                  ex-gwf-maw-p03.maw.obs.csv                                                      
 Q34                                      CONTINUOUS  MAW                            ALL TIMES    "  1  35"                                  ex-gwf-maw-p03.maw.obs.csv                                                      
 Q35                                      CONTINUOUS  MAW                            ALL TIMES    "  1  36"                                  ex-gwf-maw-p03.maw.obs.csv                                                      
 Q36                                      CONTINUOUS  MAW                            ALL TIMES    "  1  37"                                  ex-gwf-maw-p03.maw.obs.csv                                                      
 Q37                                      CONTINUOUS  MAW                            ALL TIMES    "  1  38"                                  ex-gwf-maw-p03.maw.obs.csv                                                      
 ----------------------------------------------------------------------------------------------------------------------------------------------------------------------------------------------------------------------------



start timestep kper="1" kstp="1" mode="normal"


 BEGIN READING OUTPUT CONTROL FOR STRESS PERIOD 1
      THE LAST TIME STEP WILL BE SAVED
      THE LAST TIME STEP WILL BE SAVED
      THE LAST TIME STEP WILL BE PRINTED

 END READING OUTPUT CONTROL FOR STRESS PERIOD 1

 REUSING MAWS FROM LAST STRESS PERIOD
 UBDSV1 SAVING     FLOW-JA-FACE ON UNIT   1016 AT TIME STEP      1, STRESS PERIOD      1
 UBDSV06 SAVING       DATA-SPDIS IN MODEL EX-GWF-MAW-P03   PACKAGE NPF             CONNECTED TO MODEL EX-GWF-MAW-P03   PACKAGE NPF              ON UNIT   1016 AT TIME STEP      1, STRESS PERIOD      1
 UBDSV06 SAVING             RCHA IN MODEL EX-GWF-MAW-P03   PACKAGE EX-GWF-MAW-P03  CONNECTED TO MODEL EX-GWF-MAW-P03   PACKAGE RCHA_0           ON UNIT   1016 AT TIME STEP      1, STRESS PERIOD      1
 UBDSV06 SAVING              CHD IN MODEL EX-GWF-MAW-P03   PACKAGE EX-GWF-MAW-P03  CONNECTED TO MODEL EX-GWF-MAW-P03   PACKAGE CHD_0            ON UNIT   1016 AT TIME STEP      1, STRESS PERIOD      1
 UBDSV06 SAVING              MAW IN MODEL EX-GWF-MAW-P03   PACKAGE EX-GWF-MAW-P03  CONNECTED TO MODEL EX-GWF-MAW-P03   PACKAGE MAW_0            ON UNIT   1016 AT TIME STEP      1, STRESS PERIOD      1

 HEAD WILL BE SAVED ON UNIT 1017 AT END OF TIME STEP    1, STRESS PERIOD    1


  MAW_0 BUDGET FOR ENTIRE MODEL AT END OF TIME STEP    1, STRESS PERIOD   1
  ------------------------------------------------------------------------------

     CUMULATIVE MAW_0      L**3       RATES FOR THIS TIME STEP      L**3/T
     ------------------                 ------------------------

           IN:                                      IN:
           ---                                      ---
                 GWF =           4.7977                   GWF =           4.7977
                RATE =           0.0000                  RATE =           0.0000
             STORAGE =           0.0000               STORAGE =           0.0000
            CONSTANT =           0.0000              CONSTANT =           0.0000

            TOTAL IN =           4.7977              TOTAL IN =           4.7977

          OUT:                                     OUT:
          ----                                     ----
                 GWF =           4.7977                   GWF =           4.7977
                RATE =           0.0000                  RATE =           0.0000
             STORAGE =           0.0000               STORAGE =           0.0000
            CONSTANT =           0.0000              CONSTANT =           0.0000

           TOTAL OUT =           4.7977             TOTAL OUT =           4.7977

            IN - OUT =       2.0771E-07              IN - OUT =       2.0771E-07

 PERCENT DISCREPANCY =           0.00     PERCENT DISCREPANCY =           0.00



  VOLUME BUDGET FOR ENTIRE MODEL AT END OF TIME STEP    1, STRESS PERIOD   1
  ---------------------------------------------------------------------------------------------------

     CUMULATIVE VOLUME      L**3       RATES FOR THIS TIME STEP      L**3/T          PACKAGE NAME    
     ------------------                 ------------------------                     ----------------

           IN:                                      IN:
           ---                                      ---
                RCHA =          18.2640                  RCHA =          18.2640     RCHA_0                           
                 CHD =         390.3721                   CHD =         390.3721     CHD_0                            
                 MAW =           4.7977                   MAW =           4.7977     MAW_0                            

            TOTAL IN =         413.4338              TOTAL IN =         413.4338

          OUT:                                     OUT:
          ----                                     ----
                RCHA =           0.0000                  RCHA =           0.0000     RCHA_0                           
                 CHD =         408.6361                   CHD =         408.6361     CHD_0                            
                 MAW =           4.7977                   MAW =           4.7977     MAW_0                            

           TOTAL OUT =         413.4337             TOTAL OUT =         413.4337

            IN - OUT =       4.8345E-05              IN - OUT =       4.8345E-05

 PERCENT DISCREPANCY =           0.00     PERCENT DISCREPANCY =           0.00




         TIME SUMMARY AT END OF TIME STEP    1 IN STRESS PERIOD    1
                    SECONDS     MINUTES      HOURS       DAYS        YEARS
                    -----------------------------------------------------------
   TIME STEP LENGTH  86400.      1440.0      24.000      1.0000     2.73785E-03
 STRESS PERIOD TIME  86400.      1440.0      24.000      1.0000     2.73785E-03
         TOTAL TIME  86400.      1440.0      24.000      1.0000     2.73785E-03


end timestep

