                                  MODFLOW-2005     
      U.S. GEOLOGICAL SURVEY MODULAR FINITE-DIFFERENCE GROUND-WATER FLOW MODEL
                            VERSION 1.12.00 2/3/2017

 LIST FILE: B.list
                         UNIT    2

 OPENING B.dis
 FILE TYPE:DIS   UNIT   11   STATUS:OLD    
 FORMAT:FORMATTED              ACCESS:SEQUENTIAL          

 OPENING B.bas
 FILE TYPE:BAS6   UNIT   13   STATUS:OLD    
 FORMAT:FORMATTED              ACCESS:SEQUENTIAL          

 OPENING B.lpf
 FILE TYPE:LPF   UNIT   15   STATUS:OLD    
 FORMAT:FORMATTED              ACCESS:SEQUENTIAL          

 OPENING B.rch
 FILE TYPE:RCH   UNIT   19   STATUS:OLD    
 FORMAT:FORMATTED              ACCESS:SEQUENTIAL          

 OPENING B.wel
 FILE TYPE:WEL   UNIT   20   STATUS:OLD    
 FORMAT:FORMATTED              ACCESS:SEQUENTIAL          

 OPENING B.pcg
 FILE TYPE:PCG   UNIT   27   STATUS:OLD    
 FORMAT:FORMATTED              ACCESS:SEQUENTIAL          

 OPENING B.oc
 FILE TYPE:OC   UNIT   14   STATUS:OLD    
 FORMAT:FORMATTED              ACCESS:SEQUENTIAL          

 OPENING B.cbc
 FILE TYPE:DATA(BINARY)   UNIT    1   STATUS:REPLACE
 FORMAT:UNFORMATTED            ACCESS:STREAM              

 OPENING B.hds
 FILE TYPE:DATA(BINARY)   UNIT   51   STATUS:REPLACE
 FORMAT:UNFORMATTED            ACCESS:STREAM              

 BAS -- BASIC PACKAGE, VERSION 7, 5/2/2005 INPUT READ FROM UNIT   13
 
 MODFLOW was compiled using mixed precision
 Precision of REAL variables:           6
 Precision of DOUBLE PRECISION variables:          15

 DISCRETIZATION INPUT DATA READ FROM UNIT   11
 # DIS package for MODFLOW-2005 generated by Flopy 3.8.2
    1 LAYERS        40 ROWS        20 COLUMNS
    1 STRESS PERIOD(S) IN SIMULATION
 MODEL TIME UNIT IS DAYS
 MODEL LENGTH UNIT IS METERS
  Confining bed flag for each layer:
   0

                     DELR =   5.00000    

                     DELC =  0.250000    

 TOP ELEVATION OF LAYER 1 =   0.00000    

   MODEL LAYER BOTTOM EL. =  -10.0000     FOR LAYER   1


 STRESS PERIOD     LENGTH       TIME STEPS     MULTIPLIER FOR DELT    SS FLAG
 ----------------------------------------------------------------------------
        1         1.000000          1                    1.000         SS

 STEADY-STATE SIMULATION



 
 # BAS6 package for MODFLOW-2005 generated by Flopy 3.8.2                        
 THE FREE FORMAT OPTION HAS BEEN SELECTED



                     BOUNDARY ARRAY FOR LAYER   1
 READING ON UNIT   13 WITH FORMAT: (20I10)             

 AQUIFER HEAD WILL BE SET TO  -999.99     AT ALL NO-FLOW NODES (IBOUND=0).

             INITIAL HEAD =   20.0000     FOR LAYER   1
 # OC package for MODFLOW-2005 generated by Flopy 3.8.2

 OUTPUT CONTROL IS SPECIFIED ONLY AT TIME STEPS FOR WHICH OUTPUT IS DESIRED
 COMPACT CELL-BY-CELL BUDGET FILES WILL BE WRITTEN
 AUXILIARY DATA WILL BE SAVED IN CELL-BY-CELL BUDGET FILES
 HEAD PRINT FORMAT CODE IS   0    DRAWDOWN PRINT FORMAT CODE IS   0
 HEADS WILL BE SAVED ON UNIT   51    DRAWDOWNS WILL BE SAVED ON UNIT    0

 LPF -- LAYER-PROPERTY FLOW PACKAGE, VERSION 7, 5/2/2005
         INPUT READ FROM UNIT   15
 # LPF package for MODFLOW-2005 generated by Flopy 3.8.2
 CELL-BY-CELL FLOWS WILL BE SAVED ON UNIT    1
 HEAD AT CELLS THAT CONVERT TO DRY= -1.00000E+30
 No named parameters

   LAYER FLAGS:
 LAYER       LAYTYP        LAYAVG         CHANI        LAYVKA        LAYWET
 ---------------------------------------------------------------------------
    1             1             0     1.000E+00             0             0

   INTERPRETATION OF LAYER FLAGS:
                        INTERBLOCK     HORIZONTAL    DATA IN
         LAYER TYPE   TRANSMISSIVITY   ANISOTROPY   ARRAY VKA   WETTABILITY
 LAYER      (LAYTYP)      (LAYAVG)       (CHANI)      (LAYVKA)      (LAYWET)
 ---------------------------------------------------------------------------
    1   CONVERTIBLE      HARMONIC     1.000E+00    VERTICAL K  NON-WETTABLE

 WETTING CAPABILITY IS NOT ACTIVE IN ANY LAYER

    HYD. COND. ALONG ROWS =   1.00000     FOR LAYER   1

      VERTICAL HYD. COND. =   1.00000     FOR LAYER   1

 WEL -- WELL PACKAGE, VERSION 7, 5/2/2005 INPUT READ FROM UNIT   20
 # WEL package for MODFLOW-2005 generated by Flopy 3.8.2
 No named parameters
 MAXIMUM OF      1 ACTIVE WELLS AT ONE TIME


     0 Well parameters

 RCH -- RECHARGE PACKAGE, VERSION 7, 5/2/2005 INPUT READ FROM UNIT   19
 # RCH package for MODFLOW-2005 generated by Flopy 3.8.2
 No named parameters
 OPTION 3 -- RECHARGE TO HIGHEST ACTIVE NODE IN EACH VERTICAL COLUMN


     0 Recharge parameters

 PCG -- CONJUGATE-GRADIENT SOLUTION PACKAGE, VERSION 7, 5/2/2005
 # PCG package for MODFLOW-2005 generated by Flopy 3.8.2
 MAXIMUM OF     50 CALLS OF SOLUTION ROUTINE
 MAXIMUM OF     30 INTERNAL ITERATIONS PER CALL TO SOLUTION ROUTINE
 MATRIX PRECONDITIONING TYPE :    1



                                    SOLUTION BY THE CONJUGATE-GRADIENT METHOD
                                   -------------------------------------------
                    MAXIMUM NUMBER OF CALLS TO PCG ROUTINE =       50
                        MAXIMUM ITERATIONS PER CALL TO PCG =       30
                               MATRIX PRECONDITIONING TYPE =        1
        RELAXATION FACTOR (ONLY USED WITH PRECOND. TYPE 1) =    0.10000E+01
 PARAMETER OF POLYNOMIAL PRECOND. = 2 (2) OR IS CALCULATED :        0
                         HEAD CHANGE CRITERION FOR CLOSURE =    0.10000E-04
                     RESIDUAL CHANGE CRITERION FOR CLOSURE =    0.10000E-04
            PCG HEAD AND RESIDUAL CHANGE PRINTOUT INTERVAL =      999
     PRINTING FROM SOLVER IS LIMITED(1) OR SUPPRESSED (>1) =        3
                            STEADY-STATE DAMPING PARAMETER =    0.10000E+01
                               TRANSIENT DAMPING PARAMETER =    0.10000E+01
1
                            STRESS PERIOD NO.    1, LENGTH =   1.000000    
                            -----------------------------------------------

                              NUMBER OF TIME STEPS =     1

                               MULTIPLIER FOR DELT =     1.000

                            INITIAL TIME STEP SIZE =   1.000000    

 WELL NO.  LAYER   ROW   COL   STRESS RATE         
 --------------------------------------------------
      1      1     21     11      -100.0    

      1 WELL 

                 RECHARGE =  1.000000E-03
 
 SOLVING FOR HEAD 

 OUTPUT CONTROL FOR STRESS PERIOD    1   TIME STEP    1
    PRINT HEAD FOR ALL LAYERS
    PRINT BUDGET
    SAVE HEAD FOR ALL LAYERS
    SAVE BUDGET
 UBDSV2 SAVING "   CONSTANT HEAD" ON UNIT   1 AT TIME STEP  1, STRESS PERIOD   1
 UBDSV1 SAVING "FLOW RIGHT FACE " ON UNIT   1 AT TIME STEP  1, STRESS PERIOD   1
 UBDSV1 SAVING "FLOW FRONT FACE " ON UNIT   1 AT TIME STEP  1, STRESS PERIOD   1
1
              HEAD IN LAYER   1 AT END OF TIME STEP   1 IN STRESS PERIOD    1
  ---------------------------------------------------------------------------

            1           2           3           4           5           6           7           8           9          10
           11          12          13          14          15          16          17          18          19          20
 ........................................................................................................................
   1    20.00       20.00       20.00       20.00       20.00       20.00       20.00       20.00       20.00       20.00    
        20.00       20.00       20.00       20.00       20.00       20.00       20.00       20.00       20.00       20.00    
   2    20.00       20.00       20.00       20.00       20.00       20.00       20.00       20.00       19.99       19.96    
        19.87       19.96       19.99       20.00       20.00       20.00       20.00       20.00       20.00       20.00    
   3    20.00       20.00       20.00       20.00       20.00       20.00       20.00       20.00       19.98       19.92    
        19.73       19.92       19.98       20.00       20.00       20.00       20.00       20.00       20.00       20.00    
   4    20.00       20.00       20.00       20.00       20.00       20.00       20.00       19.99       19.97       19.88    
        19.60       19.88       19.97       19.99       20.00       20.00       20.00       20.00       20.00       20.00    
   5    20.00       20.00       20.00       20.00       20.00       20.00       20.00       19.99       19.96       19.83    
        19.46       19.83       19.96       19.99       20.00       20.00       20.00       20.00       20.00       20.00    
   6    20.00       20.00       20.00       20.00       20.00       20.00       20.00       19.99       19.95       19.79    
        19.33       19.79       19.95       19.99       20.00       20.00       20.00       20.00       20.00       20.00    
   7    20.00       20.00       20.00       20.00       20.00       20.00       20.00       19.99       19.94       19.76    
        19.19       19.76       19.94       19.99       20.00       20.00       20.00       20.00       20.00       20.00    
   8    20.00       20.00       20.00       20.00       20.00       20.00       20.00       19.98       19.93       19.72    
        19.04       19.72       19.93       19.98       20.00       20.00       20.00       20.00       20.00       20.00    
   9    20.00       20.00       20.00       20.00       20.00       20.00       20.00       19.98       19.92       19.68    
        18.90       19.68       19.92       19.98       20.00       20.00       20.00       20.00       20.00       20.00    
  10    20.00       20.00       20.00       20.00       20.00       20.00       20.00       19.98       19.92       19.64    
        18.75       19.64       19.92       19.98       20.00       20.00       20.00       20.00       20.00       20.00    
  11    20.00       20.00       20.00       20.00       20.00       20.00       20.00       19.98       19.91       19.61    
        18.59       19.61       19.91       19.98       20.00       20.00       20.00       20.00       20.00       20.00    
  12    20.00       20.00       20.00       20.00       20.00       20.00       20.00       19.98       19.90       19.58    
        18.43       19.58       19.90       19.98       20.00       20.00       20.00       20.00       20.00       20.00    
  13    20.00       20.00       20.00       20.00       20.00       20.00       20.00       19.98       19.89       19.55    
        18.27       19.55       19.89       19.98       20.00       20.00       20.00       20.00       20.00       20.00    
  14    20.00       20.00       20.00       20.00       20.00       20.00       20.00       19.98       19.89       19.52    
        18.09       19.52       19.89       19.98       20.00       20.00       20.00       20.00       20.00       20.00    
  15    20.00       20.00       20.00       20.00       20.00       20.00       19.99       19.97       19.88       19.49    
        17.91       19.49       19.88       19.97       19.99       20.00       20.00       20.00       20.00       20.00    
  16    20.00       20.00       20.00       20.00       20.00       20.00       19.99       19.97       19.88       19.47    
        17.73       19.47       19.88       19.97       19.99       20.00       20.00       20.00       20.00       20.00    
  17    20.00       20.00       20.00       20.00       20.00       20.00       19.99       19.97       19.88       19.45    
        17.53       19.45       19.88       19.97       19.99       20.00       20.00       20.00       20.00       20.00    
  18    20.00       20.00       20.00       20.00       20.00       20.00       19.99       19.97       19.87       19.43    
        17.33       19.43       19.87       19.97       19.99       20.00       20.00       20.00       20.00       20.00    
  19    20.00       20.00       20.00       20.00       20.00       20.00       19.99       19.97       19.87       19.42    
        17.11       19.42       19.87       19.97       19.99       20.00       20.00       20.00       20.00       20.00    
  20    20.00       20.00       20.00       20.00       20.00       20.00       19.99       19.97       19.87       19.42    
        16.88       19.42       19.87       19.97       19.99       20.00       20.00       20.00       20.00       20.00    
  21    20.00       20.00       20.00       20.00       20.00       20.00       19.99       19.97       19.87       19.41    
        16.64       19.41       19.87       19.97       19.99       20.00       20.00       20.00       20.00       20.00    
  22    20.00       20.00       20.00       20.00       20.00       20.00       19.99       19.97       19.87       19.42    
        16.89       19.42       19.87       19.97       19.99       20.00       20.00       20.00       20.00       20.00    
  23    20.00       20.00       20.00       20.00       20.00       20.00       19.99       19.97       19.87       19.43    
        17.12       19.43       19.87       19.97       19.99       20.00       20.00       20.00       20.00       20.00    
  24    20.00       20.00       20.00       20.00       20.00       20.00       19.99       19.97       19.88       19.44    
        17.34       19.44       19.88       19.97       19.99       20.00       20.00       20.00       20.00       20.00    
  25    20.00       20.00       20.00       20.00       20.00       20.00       19.99       19.97       19.88       19.46    
        17.55       19.46       19.88       19.97       19.99       20.00       20.00       20.00       20.00       20.00    
  26    20.00       20.00       20.00       20.00       20.00       20.00       19.99       19.97       19.88       19.48    
        17.76       19.48       19.88       19.97       19.99       20.00       20.00       20.00       20.00       20.00    
  27    20.00       20.00       20.00       20.00       20.00       20.00       20.00       19.98       19.89       19.51    
        17.95       19.51       19.89       19.98       20.00       20.00       20.00       20.00       20.00       20.00    
  28    20.00       20.00       20.00       20.00       20.00       20.00       20.00       19.98       19.89       19.53    
        18.14       19.53       19.89       19.98       20.00       20.00       20.00       20.00       20.00       20.00    
  29    20.00       20.00       20.00       20.00       20.00       20.00       20.00       19.98       19.90       19.57    
        18.31       19.57       19.90       19.98       20.00       20.00       20.00       20.00       20.00       20.00    
  30    20.00       20.00       20.00       20.00       20.00       20.00       20.00       19.98       19.91       19.60    
        18.49       19.60       19.91       19.98       20.00       20.00       20.00       20.00       20.00       20.00    
  31    20.00       20.00       20.00       20.00       20.00       20.00       20.00       19.98       19.91       19.63    
        18.65       19.63       19.91       19.98       20.00       20.00       20.00       20.00       20.00       20.00    
  32    20.00       20.00       20.00       20.00       20.00       20.00       20.00       19.98       19.92       19.67    
        18.81       19.67       19.92       19.98       20.00       20.00       20.00       20.00       20.00       20.00    
  33    20.00       20.00       20.00       20.00       20.00       20.00       20.00       19.98       19.93       19.71    
        18.97       19.71       19.93       19.98       20.00       20.00       20.00       20.00       20.00       20.00    
  34    20.00       20.00       20.00       20.00       20.00       20.00       20.00       19.99       19.94       19.75    
        19.12       19.75       19.94       19.99       20.00       20.00       20.00       20.00       20.00       20.00    
  35    20.00       20.00       20.00       20.00       20.00       20.00       20.00       19.99       19.95       19.79    
        19.28       19.79       19.95       19.99       20.00       20.00       20.00       20.00       20.00       20.00    
  36    20.00       20.00       20.00       20.00       20.00       20.00       20.00       19.99       19.96       19.83    
        19.42       19.83       19.96       19.99       20.00       20.00       20.00       20.00       20.00       20.00    
  37    20.00       20.00       20.00       20.00       20.00       20.00       20.00       19.99       19.97       19.87    
        19.57       19.87       19.97       19.99       20.00       20.00       20.00       20.00       20.00       20.00    
  38    20.00       20.00       20.00       20.00       20.00       20.00       20.00       20.00       19.98       19.91    
        19.71       19.91       19.98       20.00       20.00       20.00       20.00       20.00       20.00       20.00    
  39    20.00       20.00       20.00       20.00       20.00       20.00       20.00       20.00       19.99       19.96    
        19.86       19.96       19.99       20.00       20.00       20.00       20.00       20.00       20.00       20.00    
  40    20.00       20.00       20.00       20.00       20.00       20.00       20.00       20.00       20.00       20.00    
        20.00       20.00       20.00       20.00       20.00       20.00       20.00       20.00       20.00       20.00    

 HEAD WILL BE SAVED ON UNIT   51 AT END OF TIME STEP    1, STRESS PERIOD    1
1
  VOLUMETRIC BUDGET FOR ENTIRE MODEL AT END OF TIME STEP    1, STRESS PERIOD   1
  ------------------------------------------------------------------------------

     CUMULATIVE VOLUMES      L**3       RATES FOR THIS TIME STEP      L**3/T
     ------------------                 ------------------------

           IN:                                      IN:
           ---                                      ---
             STORAGE =           0.0000               STORAGE =           0.0000
       CONSTANT HEAD =          99.4476         CONSTANT HEAD =          99.4476
               WELLS =           0.0000                 WELLS =           0.0000
            RECHARGE =           0.9500              RECHARGE =           0.9500

            TOTAL IN =         100.3976              TOTAL IN =         100.3976

          OUT:                                     OUT:
          ----                                     ----
             STORAGE =           0.0000               STORAGE =           0.0000
       CONSTANT HEAD =           0.3976         CONSTANT HEAD =           0.3976
               WELLS =         100.0000                 WELLS =         100.0000
            RECHARGE =           0.0000              RECHARGE =           0.0000

           TOTAL OUT =         100.3976             TOTAL OUT =         100.3976

            IN - OUT =           0.0000              IN - OUT =           0.0000

 PERCENT DISCREPANCY =           0.00     PERCENT DISCREPANCY =           0.00






         TIME SUMMARY AT END OF TIME STEP    1 IN STRESS PERIOD    1
                    SECONDS     MINUTES      HOURS       DAYS        YEARS
                    -----------------------------------------------------------
   TIME STEP LENGTH  86400.      1440.0      24.000      1.0000     2.73785E-03
 STRESS PERIOD TIME  86400.      1440.0      24.000      1.0000     2.73785E-03
         TOTAL TIME  86400.      1440.0      24.000      1.0000     2.73785E-03
1

 Run end date and time (yyyy/mm/dd hh:mm:ss): 2025/01/13  8:18:56
 Elapsed run time:  0.015 Seconds

