                                   MODFLOW 6
                U.S. GEOLOGICAL SURVEY MODULAR HYDROLOGIC MODEL
                            VERSION 6.6.1 02/10/2025

   MODFLOW 6 compiled Feb 14 2025 13:40:10 with Intel(R) Fortran Intel(R) 64
   Compiler Classic for applications running on Intel(R) 64, Version 2021.7.0
                             Build 20220726_000000

This software has been approved for release by the U.S. Geological 
Survey (USGS). Although the software has been subjected to rigorous 
review, the USGS reserves the right to update the software as needed 
pursuant to further analysis and review. No warranty, expressed or 
implied, is made by the USGS or the U.S. Government as to the 
functionality of the software and related material nor shall the 
fact of release constitute any such warranty. Furthermore, the 
software is released on condition that neither the USGS nor the U.S. 
Government shall be held liable for any damages resulting from its 
authorized or unauthorized use. Also refer to the USGS Water 
Resources Software User Rights Notice for complete use, copyright, 
and distribution information.


As a work of the United States Government, this USGS product is 
in the public domain within the United States. You can copy, 
modify, distribute, and perform the work, even for commercial 
purposes, all without asking permission. Additionally, USGS 
waives copyright and related rights in the work worldwide 
through CC0 1.0 Universal Public Domain Dedication 
(https://creativecommons.org/publicdomain/zero/1.0/).

The following GNU Lesser General Public License (LGPL) libraries
are used in this USGS product:

    SPARSKIT version 2.0
      ilut, luson, and qsplit 
      (https://www-users.cse.umn.edu/~saad/software/SPARSKIT/)

    RCM - Reverse Cuthill McKee Ordering
      (https://people.math.sc.edu/Burkardt/f_src/rcm/rcm.html)

    BLAS - Basic Linear Algebra Subprograms Level 1
      (https://people.math.sc.edu/Burkardt/f_src/blas1_d/blas1_d.html)

    SPARSEKIT - Sparse Matrix Utility Package
      amux, dperm, dvperm, rperm, and cperm
      (https://people.sc.fsu.edu/~jburkardt/f77_src/sparsekit/sparsekit.html)

The following BSD-3 License libraries are used in this USGS product:

    Modern Fortran DAG Library
      Copyright (c) 2018, Jacob Williams
      All rights reserved.
      (https://github.com/jacobwilliams/daglib)

MODFLOW 6 compiler options: /O2 /heap-arrays:0 /fpe:0 /traceback /nologo /fpp
/c /module:win64\mod_mf6\ /object:win64\obj_mf6\

System command used to initiate simulation:
C:\Users\gross.DESKTOP-AIRQM2M\anaconda3\Scripts\mf6.exe

MODFLOW was compiled using uniform precision.

Real Variables
  KIND: 8
  TINY (smallest non-zero value):    2.225074-308
  HUGE (largest value):    1.797693+308
  PRECISION: 15
  SIZE IN BITS: 64

Integer Variables
  KIND: 4
  HUGE (largest value): 2147483647
  SIZE IN BITS: 32

Long Integer Variables
  KIND: 8
  HUGE (largest value): 9223372036854775807
  SIZE IN BITS: 64

Logical Variables
  KIND: 4
  SIZE IN BITS: 32
 

 OPENED mfsim.nam
 FILE TYPE:NAM6               UNIT 1001   STATUS:OLD                 
 FORMAT:FORMATTED              ACCESS:SEQUENTIAL          
 ACTION:READ                

 # File generated by Flopy version 3.9.1 on 05/05/2025 at 06:09:27.

 OPENED ex-gwf-lak-p02.tdis
 FILE TYPE:TDIS6              UNIT 1002   STATUS:OLD                 
 FORMAT:FORMATTED              ACCESS:SEQUENTIAL          
 ACTION:READ                

 # File generated by Flopy version 3.9.1 on 05/05/2025 at 06:09:27.

 OPENED ex-gwf-lak-p02.nam
 FILE TYPE:GWF6               UNIT 1003   STATUS:OLD                 
 FORMAT:FORMATTED              ACCESS:SEQUENTIAL          
 ACTION:READ                

 # File generated by Flopy version 3.9.1 on 05/05/2025 at 06:09:27.

 OPENED ex-gwf-lak-p02.dis
 FILE TYPE:DIS6               UNIT 1004   STATUS:OLD                 
 FORMAT:FORMATTED              ACCESS:SEQUENTIAL          
 ACTION:READ                

 # File generated by Flopy version 3.9.1 on 05/05/2025 at 06:09:27.

 OPENED ex-gwf-lak-p02.npf
 FILE TYPE:NPF6               UNIT 1005   STATUS:OLD                 
 FORMAT:FORMATTED              ACCESS:SEQUENTIAL          
 ACTION:READ                

 # File generated by Flopy version 3.9.1 on 05/05/2025 at 06:09:27.

 OPENED ex-gwf-lak-p02.sto
 FILE TYPE:STO6               UNIT 1006   STATUS:OLD                 
 FORMAT:FORMATTED              ACCESS:SEQUENTIAL          
 ACTION:READ                

 # File generated by Flopy version 3.9.1 on 05/05/2025 at 06:09:27.

 OPENED ex-gwf-lak-p02.ic
 FILE TYPE:IC6                UNIT 1007   STATUS:OLD                 
 FORMAT:FORMATTED              ACCESS:SEQUENTIAL          
 ACTION:READ                

 # File generated by Flopy version 3.9.1 on 05/05/2025 at 06:09:27.

 OPENED ex-gwf-lak-p02.mvr
 FILE TYPE:MVR6      UNIT 1008   STATUS:OLD                 
 FORMAT:FORMATTED              ACCESS:SEQUENTIAL          
 ACTION:READ                


 OPENED ex-gwf-lak-p02.oc
 FILE TYPE:OC6       UNIT 1009   STATUS:OLD                 
 FORMAT:FORMATTED              ACCESS:SEQUENTIAL          
 ACTION:READ                


 OPENED ex-gwf-lak-p02.gwf.obs
 FILE TYPE:OBS6      UNIT 1010   STATUS:OLD                 
 FORMAT:FORMATTED              ACCESS:SEQUENTIAL          
 ACTION:READ                


 OPENED ex-gwf-lak-p02.rcha
 FILE TYPE:RCH6               UNIT 1012   STATUS:OLD                 
 FORMAT:FORMATTED              ACCESS:SEQUENTIAL          
 ACTION:READ                

 # File generated by Flopy version 3.9.1 on 05/05/2025 at 06:09:27.

 OPENED ex-gwf-lak-p02.evta
 FILE TYPE:EVT6               UNIT 1014   STATUS:OLD                 
 FORMAT:FORMATTED              ACCESS:SEQUENTIAL          
 ACTION:READ                

 # File generated by Flopy version 3.9.1 on 05/05/2025 at 06:09:27.

 OPENED ex-gwf-lak-p02.chd
 FILE TYPE:CHD6               UNIT 1015   STATUS:OLD                 
 FORMAT:FORMATTED              ACCESS:SEQUENTIAL          
 ACTION:READ                

 # File generated by Flopy version 3.9.1 on 05/05/2025 at 06:09:27.

 OPENED ex-gwf-lak-p02.sfr
 FILE TYPE:SFR6      UNIT 1016   STATUS:OLD                 
 FORMAT:FORMATTED              ACCESS:SEQUENTIAL          
 ACTION:READ                


 OPENED ex-gwf-lak-p02.lak
 FILE TYPE:LAK6      UNIT 1017   STATUS:OLD                 
 FORMAT:FORMATTED              ACCESS:SEQUENTIAL          
 ACTION:READ                


 READING SIMULATION OPTIONS
    MAXIMUM NUMBER OF ERRORS THAT WILL BE STORED IS 1000
 END OF SIMULATION OPTIONS

 READING SIMULATION TIMING

 TDIS -- TEMPORAL DISCRETIZATION PACKAGE,
 VERSION 1 : 11/13/2014 - INPUT READ FROM MEMPATH: __INPUT__/SIM/TDIS                                
 PROCESSING TDIS OPTIONS
    SIMULATION TIME UNIT IS DAYS
 END OF TDIS OPTIONS
 PROCESSING TDIS DIMENSIONS
    1 STRESS PERIOD(S) IN SIMULATION
 END OF TDIS DIMENSIONS
 PROCESSING TDIS PERIODDATA


 STRESS PERIOD     LENGTH       TIME STEPS     MULTIPLIER FOR DELT
 ----------------------------------------------------------------------------
        1         1500.000        200                    1.005
 END OF TDIS PERIODDATA
 END OF SIMULATION TIMING

 READING SIMULATION MODELS
    GWF6 model 1 will be created
 END OF SIMULATION MODELS

 READING SIMULATION EXCHANGES
 END OF SIMULATION EXCHANGES

 READING SOLUTIONGROUP

 Creating solution: SLN_1           

 OPENED ex-gwf-lak-p02.ims
 FILE TYPE:IMS   UNIT 1019   STATUS:OLD                 
 FORMAT:FORMATTED              ACCESS:SEQUENTIAL          
 ACTION:READ                

 END OF SOLUTIONGROUP

PROCESSING MODEL CONNECTIONS

 IMS -- ITERATIVE MODEL SOLUTION PACKAGE, VERSION 6, 4/28/2017
         INPUT READ FROM UNIT 1019
 # File generated by Flopy version 3.9.1 on 05/05/2025 at 06:09:27.

 PROCESSING IMS OPTIONS
 END OF IMS OPTIONS

 PROCESSING IMS NONLINEAR
 END OF IMS NONLINEAR DATA
 ***UNDER-RELAXATION WILL NOT BE USED***
 

 PROCESSING LINEAR DATA
 END OF LINEAR DATA
 ***IMS LINEAR SOLVER WILL BE USED***

 IMSLINEAR -- UNSTRUCTURED LINEAR SOLUTION PACKAGE, VERSION 8, 04/28/2017
 An asymmetric matrix will be solved

 OUTER ITERATION CONVERGENCE CRITERION    (DVCLOSE) =    0.100000E-08
 MAXIMUM NUMBER OF OUTER ITERATIONS        (MXITER) = 500
 SOLVER PRINTOUT INDEX                     (IPRIMS) = 1
 NONLINEAR ITERATION METHOD            (NONLINMETH) = 0
 LINEAR SOLUTION METHOD                   (LINMETH) = 1

       SOLUTION BY THE BICONJUGATE-GRADIENT STABILIZED METHOD
 ------------------------------------------------------------------
 MAXIMUM OF 500 CALLS OF SOLUTION ROUTINE
 MAXIMUM OF 100 INTERNAL ITERATIONS PER CALL TO SOLUTION ROUTINE
 LINEAR ACCELERATION METHOD            = BCGS      
 MATRIX PRECONDITIONING TYPE           = INCOMPLETE LU       
 MATRIX SCALING APPROACH               = NO SCALING          
 MATRIX REORDERING APPROACH            = ORIGINAL ORDERING        
 NUMBER OF ORTHOGONALIZATIONS          = 0
 HEAD CHANGE CRITERION FOR CLOSURE     =    0.10000E-08
 RESIDUAL CHANGE CRITERION FOR CLOSURE =    0.10000E-05
 RESIDUAL CONVERGENCE OPTION           = 1
 RESIDUAL CONVERGENCE NORM             = INFINITY NORM S 
 RELAXATION FACTOR                     =    0.00000E+00



 
    Solving:  Stress period:     1    Time step:     1
 
1
 STRESS PERIOD NO. 1, LENGTH =   1500.000    
 ------------------------------------------
 NUMBER OF TIME STEPS = 200
 MULTIPLIER FOR DELT =     1.005
 INITIAL TIME STEP SIZE =   4.382077    

 SLN_1 OUTER ITERATION SUMMARY
 ----------------------------------------------------------------------------------------------------------
                                OUTER      INNER                    STEP   MAXIMUM CHANGE MODEL-(CELLID) OR
 OUTER ITERATION STEP       ITERATION  ITERATION  MAXIMUM CHANGE SUCCESS             MODEL-PACKAGE-(NUMBER)
 ----------------------------------------------------------------------------------------------------------
 Model                              1          7       6.2283683                              1_GWF-(3,9,9)
 Model                              2          6       1.0030361                              1_GWF-(3,9,9)
 Model                              3          6       1.6139736                             1_GWF-(3,19,9)
 Model                              4          6      0.60121824                             1_GWF-(3,19,9)
 Model                              5          5      0.12513894                             1_GWF-(3,19,9)
 Model                              6          5  2.16760441E-02                             1_GWF-(3,19,9)
 Model                              7          5  3.44281286E-03                             1_GWF-(3,19,9)
 Model                              8          4  5.20355513E-04                             1_GWF-(3,19,9)
 Model                              9          4  7.61976992E-05                             1_GWF-(3,19,9)
 Model                             10          4  1.09194813E-05                             1_GWF-(3,19,9)
 Model                             11          3  1.54085647E-06                             1_GWF-(3,19,9)
 Model                             12          3  2.14972886E-07                             1_GWF-(3,19,9)
 Model                             13          2  2.97356024E-08                             1_GWF-(3,19,9)
 Model                             14          2  4.08604706E-09                             1_GWF-(3,19,9)
 Model                             15          1  5.58699753E-10       *                     1_GWF-(3,19,9)
 Package                           15            -1.23361966E-05                    1_GWF-SFR-1-(17)-inflow
 Model                             16          1  7.71791520E-11       *                    1_GWF-(3,18,10)
 Package                           16            -1.68660260E-06                    1_GWF-SFR-1-(17)-inflow
 Model                             17          1  1.34292577E-11       *                     1_GWF-(4,21,9)
 Package                           17            -2.29558515E-07                    1_GWF-SFR-1-(17)-inflow
 Model                             18          1 -6.05382411E-12       *                     1_GWF-(4,7,15)
 Package                           18            -3.13267334E-08                    1_GWF-SFR-1-(17)-inflow
 Model                             19          1  6.79278855E-12       *                    1_GWF-(5,22,14)
 Package                           19            -4.32925987E-09                    1_GWF-SFR-1-(17)-inflow
 Model                             20          1  6.12487838E-12       *                     1_GWF-(4,15,4)
 Package                           20            -4.76675672E-10       *            1_GWF-SFR-1-(17)-inflow
 ----------------------------------------------------------------------------------------------------------


 20 CALLS TO NUMERICAL SOLUTION IN TIME STEP 1 STRESS PERIOD 1
 68 TOTAL ITERATIONS
 
    Solving:  Stress period:     1    Time step:     2
 

 SLN_1 OUTER ITERATION SUMMARY
 ----------------------------------------------------------------------------------------------------------
                                OUTER      INNER                    STEP   MAXIMUM CHANGE MODEL-(CELLID) OR
 OUTER ITERATION STEP       ITERATION  ITERATION  MAXIMUM CHANGE SUCCESS             MODEL-PACKAGE-(NUMBER)
 ----------------------------------------------------------------------------------------------------------
 Model                              1          7      -4.5866688                             1_GWF-(3,19,9)
 Model                              2          6      0.73982940                            1_GWF-(1,14,10)
 Model                              3          6       1.0782104                             1_GWF-(3,19,9)
 Model                              4          5      0.10391226                            1_GWF-(1,22,10)
 Model                              5          5 -5.79858490E-03                             1_GWF-(3,19,9)
 Model                              6          5 -2.88283680E-03                             1_GWF-(3,19,9)
 Model                              7          4 -7.13890477E-04                             1_GWF-(3,19,9)
 Model                              8          4 -1.46759127E-04                             1_GWF-(3,19,9)
 Model                              9          4 -2.76519335E-05                             1_GWF-(3,19,9)
 Model                             10          3 -4.95562590E-06                             1_GWF-(3,19,9)
 Model                             11          3 -8.60068312E-07                             1_GWF-(3,19,9)
 Model                             12          3 -1.46014969E-07                             1_GWF-(3,19,9)
 Model                             13          2 -2.44008760E-08                             1_GWF-(3,19,9)
 Model                             14          2 -4.03035472E-09                             1_GWF-(3,19,9)
 Model                             15          1 -6.59852617E-10       *                    1_GWF-(3,19,10)
 Package                           15             8.99423360E-06                    1_GWF-SFR-1-(17)-inflow
 Model                             16          1 -1.08471454E-10       *                     1_GWF-(3,19,9)
 Package                           16             1.47217307E-06                    1_GWF-SFR-1-(17)-inflow
 Model                             17          1 -1.85167437E-11       *                    1_GWF-(5,18,11)
 Package                           17             2.39390073E-07                    1_GWF-SFR-1-(17)-inflow
 Model                             18          1  7.10542736E-12       *                     1_GWF-(5,26,4)
 Package                           18             3.88103456E-08                    1_GWF-SFR-1-(17)-inflow
 Model                             19          1 -5.86908300E-12       *                     1_GWF-(5,5,10)
 Package                           19             6.20479908E-09                    1_GWF-SFR-1-(17)-inflow
 Model                             20          1 -6.45172804E-12       *                     1_GWF-(5,4,12)
 Package                           20             1.26163154E-09                    1_GWF-SFR-1-(17)-inflow
 Model                             21          1 -6.53699317E-12       *                     1_GWF-(5,12,6)
 Package                           21            -4.25561560E-11       *            1_GWF-SFR-1-(11)-inflow
 ----------------------------------------------------------------------------------------------------------


 21 CALLS TO NUMERICAL SOLUTION IN TIME STEP 2 STRESS PERIOD 1
 66 TOTAL ITERATIONS
 
    Solving:  Stress period:     1    Time step:     3
 

 SLN_1 OUTER ITERATION SUMMARY
 ----------------------------------------------------------------------------------------------------------
                                OUTER      INNER                    STEP   MAXIMUM CHANGE MODEL-(CELLID) OR
 OUTER ITERATION STEP       ITERATION  ITERATION  MAXIMUM CHANGE SUCCESS             MODEL-PACKAGE-(NUMBER)
 ----------------------------------------------------------------------------------------------------------
 Model                              1          7       3.0737136                              1_GWF-(1,3,2)
 Model                              2          6      0.48375945                            1_GWF-(1,14,10)
 Model                              3          6      0.61285518                             1_GWF-(3,19,9)
 Model                              4          5  7.40620340E-02                             1_GWF-(3,19,9)
 Model                              5          5  7.71351034E-03                             1_GWF-(3,19,9)
 Model                              6          4  7.48537818E-04                            1_GWF-(1,22,10)
 Model                              7          4  5.02880286E-05                            1_GWF-(1,22,10)
 Model                              8          4 -2.31537170E-05                             1_GWF-(3,19,9)
 Model                              9          3 -6.80929922E-06                             1_GWF-(3,19,9)
 Model                             10          3 -1.60695082E-06                             1_GWF-(3,19,9)
 Model                             11          3 -3.43840853E-07                             1_GWF-(3,19,9)
 Model                             12          2 -6.96280011E-08                             1_GWF-(3,19,9)
 Model                             13          2 -1.36134304E-08                             1_GWF-(3,19,9)
 Model                             14          2 -2.59986166E-09                             1_GWF-(3,19,9)
 Model                             15          1 -4.87347052E-10       *                     1_GWF-(3,18,9)
 Package                           15             4.55497279E-06                    1_GWF-SFR-1-(17)-inflow
 Model                             16          1 -9.21289711E-11       *                     1_GWF-(3,20,8)
 Package                           16             8.54870831E-07                    1_GWF-SFR-1-(17)-inflow
 Model                             17          1 -1.86162197E-11       *                    1_GWF-(5,18,10)
 Package                           17             1.58161050E-07                    1_GWF-SFR-1-(17)-inflow
 Model                             18          1 -6.94910796E-12       *                     1_GWF-(5,5,15)
 Package                           18             2.92870987E-08                    1_GWF-SFR-1-(17)-inflow
 Model                             19          1  6.65068001E-12       *                    1_GWF-(5,16,15)
 Package                           19             5.35040874E-09                    1_GWF-SFR-1-(17)-inflow
 Model                             20          1  8.25650659E-12       *                     1_GWF-(5,12,6)
 Package                           20             8.73872614E-10       *            1_GWF-SFR-1-(17)-inflow
 ----------------------------------------------------------------------------------------------------------


 20 CALLS TO NUMERICAL SOLUTION IN TIME STEP 3 STRESS PERIOD 1
 62 TOTAL ITERATIONS
 
    Solving:  Stress period:     1    Time step:     4
 

 SLN_1 OUTER ITERATION SUMMARY
 ----------------------------------------------------------------------------------------------------------
                                OUTER      INNER                    STEP   MAXIMUM CHANGE MODEL-(CELLID) OR
 OUTER ITERATION STEP       ITERATION  ITERATION  MAXIMUM CHANGE SUCCESS             MODEL-PACKAGE-(NUMBER)
 ----------------------------------------------------------------------------------------------------------
 Model                              1          7       2.7334085                              1_GWF-(1,3,2)
 Model                              2          6      0.34649260                            1_GWF-(1,14,10)
 Model                              3          6      0.39582488                             1_GWF-(3,19,9)
 Model                              4          5  7.97088169E-02                             1_GWF-(3,19,9)
 Model                              5          5  1.56593502E-02                             1_GWF-(3,19,9)
 Model                              6          5  3.05437848E-03                             1_GWF-(3,19,9)
 Model                              7          4  5.92467319E-04                             1_GWF-(3,19,9)
 Model                              8          4  1.14409285E-04                             1_GWF-(3,19,9)
 Model                              9          4  2.20116615E-05                             1_GWF-(3,19,9)
 Model                             10          3  4.22187200E-06                             1_GWF-(3,19,9)
 Model                             11          3  8.07667519E-07                             1_GWF-(3,19,9)
 Model                             12          3  1.54173634E-07                             1_GWF-(3,19,9)
 Model                             13          2  2.93748741E-08                             1_GWF-(3,19,9)
 Model                             14          2  5.58846125E-09                             1_GWF-(3,19,9)
 Model                             15          2  1.06037135E-09                             1_GWF-(3,20,9)
 Model                             16          1  2.03399964E-10       *                     1_GWF-(3,19,9)
 Package                           16            -1.53631449E-06                    1_GWF-SFR-1-(17)-inflow
 Model                             17          1  3.97335498E-11       *                     1_GWF-(4,18,9)
 Package                           17            -2.91427201E-07                    1_GWF-SFR-1-(17)-inflow
 Model                             18          1  9.86233317E-12       *                    1_GWF-(4,19,11)
 Package                           18            -5.52410061E-08                    1_GWF-SFR-1-(17)-inflow
 Model                             19          1  6.23856522E-12       *                    1_GWF-(5,24,16)
 Package                           19            -1.04858778E-08                    1_GWF-SFR-1-(17)-inflow
 Model                             20          1 -6.73594514E-12       *                    1_GWF-(5,24,16)
 Package                           20            -2.03652715E-09                    1_GWF-SFR-1-(17)-inflow
 Model                             21          1 -7.75912667E-12       *                     1_GWF-(5,6,15)
 Package                           21            -2.93299679E-10       *            1_GWF-SFR-1-(17)-inflow
 ----------------------------------------------------------------------------------------------------------


 21 CALLS TO NUMERICAL SOLUTION IN TIME STEP 4 STRESS PERIOD 1
 67 TOTAL ITERATIONS
 
    Solving:  Stress period:     1    Time step:     5
 

 SLN_1 OUTER ITERATION SUMMARY
 ----------------------------------------------------------------------------------------------------------
                                OUTER      INNER                    STEP   MAXIMUM CHANGE MODEL-(CELLID) OR
 OUTER ITERATION STEP       ITERATION  ITERATION  MAXIMUM CHANGE SUCCESS             MODEL-PACKAGE-(NUMBER)
 ----------------------------------------------------------------------------------------------------------
 Model                              1          7       2.4313508                              1_GWF-(1,3,2)
 Model                              2          6      0.27017522                            1_GWF-(1,14,10)
 Model                              3          5      0.28785134                             1_GWF-(3,19,9)
 Model                              4          5  7.97069811E-02                             1_GWF-(3,19,9)
 Model                              5          5  1.96807020E-02                             1_GWF-(3,19,9)
 Model                              6          5  4.57708183E-03                             1_GWF-(3,19,9)
 Model                              7          5  1.02468429E-03                             1_GWF-(3,19,9)
 Model                              8          4  2.23481569E-04                             1_GWF-(3,19,9)
 Model                              9          4  4.78266833E-05                             1_GWF-(3,19,9)
 Model                             10          3  1.00902231E-05                             1_GWF-(3,19,9)
 Model                             11          3  2.10532714E-06                             1_GWF-(3,19,9)
 Model                             12          3  4.35431645E-07                             1_GWF-(3,19,9)
 Model                             13          2  8.94173411E-08                             1_GWF-(3,19,9)
 Model                             14          2  1.82558040E-08                             1_GWF-(3,19,9)
 Model                             15          2  3.71036890E-09                             1_GWF-(3,19,9)
 Model                             16          1  7.51796847E-10       *                     1_GWF-(3,19,8)
 Package                           16            -4.61766455E-06                    1_GWF-SFR-1-(17)-inflow
 Model                             17          1  1.52880375E-10       *                     1_GWF-(3,18,8)
 Package                           17            -9.34421273E-07                    1_GWF-SFR-1-(17)-inflow
 Model                             18          1  3.14059889E-11       *                    1_GWF-(4,19,10)
 Package                           18            -1.88431361E-07                    1_GWF-SFR-1-(17)-inflow
 Model                             19          1  8.19966317E-12       *                    1_GWF-(4,18,10)
 Package                           19            -3.78499756E-08                    1_GWF-SFR-1-(17)-inflow
 Model                             20          1  6.49436060E-12       *                     1_GWF-(5,3,13)
 Package                           20            -7.56566523E-09                    1_GWF-SFR-1-(17)-inflow
 Model                             21          1 -7.07700565E-12       *                     1_GWF-(5,13,7)
 Package                           21            -1.63203872E-09                    1_GWF-SFR-1-(17)-inflow
 Model                             22          1 -6.94910796E-12       *                     1_GWF-(5,16,4)
 Package                           22            -3.58881985E-10       *            1_GWF-SFR-1-(17)-inflow
 ----------------------------------------------------------------------------------------------------------


 22 CALLS TO NUMERICAL SOLUTION IN TIME STEP 5 STRESS PERIOD 1
 68 TOTAL ITERATIONS
 
    Solving:  Stress period:     1    Time step:     6
 

 SLN_1 OUTER ITERATION SUMMARY
 ----------------------------------------------------------------------------------------------------------
                                OUTER      INNER                    STEP   MAXIMUM CHANGE MODEL-(CELLID) OR
 OUTER ITERATION STEP       ITERATION  ITERATION  MAXIMUM CHANGE SUCCESS             MODEL-PACKAGE-(NUMBER)
 ----------------------------------------------------------------------------------------------------------
 Model                              1          7       2.1643505                              1_GWF-(1,3,2)
 Model                              2          6      0.22756543                             1_GWF-(1,12,9)
 Model                              3          5      0.23077201                             1_GWF-(3,19,9)
 Model                              4          5  7.87206973E-02                             1_GWF-(3,19,9)
 Model                              5          5  2.19877279E-02                             1_GWF-(3,19,9)
 Model                              6          5  5.57122626E-03                             1_GWF-(3,19,9)
 Model                              7          5  1.33546378E-03                             1_GWF-(3,19,9)
 Model                              8          4  3.08852410E-04                             1_GWF-(3,19,9)
 Model                              9          4  6.96680039E-05                             1_GWF-(3,19,9)
 Model                             10          4  1.54300124E-05                             1_GWF-(3,19,9)
 Model                             11          3  3.37009531E-06                             1_GWF-(3,19,9)
 Model                             12          3  7.28065572E-07                             1_GWF-(3,19,9)
 Model                             13          3  1.55916354E-07                             1_GWF-(3,19,9)
 Model                             14          2  3.31510250E-08                             1_GWF-(3,19,9)
 Model                             15          2  7.00742930E-09                             1_GWF-(3,19,9)
 Model                             16          2  1.47338142E-09                             1_GWF-(3,20,9)
 Model                             17          1  3.09043457E-10       *                     1_GWF-(3,18,9)
 Package                           17            -1.63425257E-06                    1_GWF-SFR-1-(17)-inflow
 Model                             18          1  6.58104682E-11       *                     1_GWF-(3,19,9)
 Package                           18            -3.42245914E-07                    1_GWF-SFR-1-(17)-inflow
 Model                             19          1  1.43103307E-11       *                     1_GWF-(5,21,9)
 Package                           19            -7.13992815E-08                    1_GWF-SFR-1-(17)-inflow
 Model                             20          1 -6.97752967E-12       *                    1_GWF-(4,16,16)
 Package                           20            -1.48672316E-08                    1_GWF-SFR-1-(17)-inflow
 Model                             21          1  5.52802248E-12       *                      1_GWF-(5,4,7)
 Package                           21            -3.01093658E-09                    1_GWF-SFR-1-(17)-inflow
 Model                             22          1  6.92068625E-12       *                      1_GWF-(5,2,8)
 Package                           22            -6.76582053E-10       *            1_GWF-SFR-1-(17)-inflow
 ----------------------------------------------------------------------------------------------------------


 22 CALLS TO NUMERICAL SOLUTION IN TIME STEP 6 STRESS PERIOD 1
 71 TOTAL ITERATIONS
 
    Solving:  Stress period:     1    Time step:     7
 

 SLN_1 OUTER ITERATION SUMMARY
 ----------------------------------------------------------------------------------------------------------
                                OUTER      INNER                    STEP   MAXIMUM CHANGE MODEL-(CELLID) OR
 OUTER ITERATION STEP       ITERATION  ITERATION  MAXIMUM CHANGE SUCCESS             MODEL-PACKAGE-(NUMBER)
 ----------------------------------------------------------------------------------------------------------
 Model                              1          7       1.9291219                              1_GWF-(1,3,2)
 Model                              2          6      0.20390578                             1_GWF-(1,12,9)
 Model                              3          6      0.19946148                             1_GWF-(3,19,9)
 Model                              4          5  7.80675275E-02                             1_GWF-(3,19,9)
 Model                              5          5  2.35536770E-02                             1_GWF-(3,19,9)
 Model                              6          5  6.29943337E-03                             1_GWF-(3,19,9)
 Model                              7          5  1.57667476E-03                             1_GWF-(3,19,9)
 Model                              8          4  3.78576960E-04                             1_GWF-(3,19,9)
 Model                              9          4  8.83618895E-05                             1_GWF-(3,19,9)
 Model                             10          4  2.02055213E-05                             1_GWF-(3,19,9)
 Model                             11          3  4.54932841E-06                             1_GWF-(3,19,9)
 Model                             12          3  1.01199470E-06                             1_GWF-(3,19,9)
 Model                             13          3  2.22954426E-07                             1_GWF-(3,19,9)
 Model                             14          2  4.87346625E-08                             1_GWF-(3,19,9)
 Model                             15          2  1.05817861E-08                             1_GWF-(3,19,9)
 Model                             16          2  2.28524755E-09                             1_GWF-(3,20,9)
 Model                             17          1  4.92462959E-10       *                     1_GWF-(3,19,9)
 Package                           17            -2.32374200E-06                    1_GWF-SFR-1-(17)-inflow
 Model                             18          1  1.07149845E-10       *                    1_GWF-(3,18,10)
 Package                           18            -4.99705074E-07                    1_GWF-SFR-1-(17)-inflow
 Model                             19          1  2.48974175E-11       *                     1_GWF-(3,21,7)
 Package                           19            -1.06845119E-07                    1_GWF-SFR-1-(17)-inflow
 Model                             20          1  7.88702437E-12       *                    1_GWF-(4,16,11)
 Package                           20            -2.28795385E-08                    1_GWF-SFR-1-(17)-inflow
 Model                             21          1  7.48912043E-12       *                    1_GWF-(4,13,14)
 Package                           21            -4.90777433E-09                    1_GWF-SFR-1-(17)-inflow
 Model                             22          1  6.28119778E-12       *                     1_GWF-(5,25,3)
 Package                           22            -1.00354755E-09                    1_GWF-SFR-1-(17)-inflow
 Model                             23          1  8.07176548E-12       *                    1_GWF-(4,24,14)
 Package                           23            -2.49783048E-10       *            1_GWF-SFR-1-(17)-inflow
 ----------------------------------------------------------------------------------------------------------


 23 CALLS TO NUMERICAL SOLUTION IN TIME STEP 7 STRESS PERIOD 1
 73 TOTAL ITERATIONS
 
    Solving:  Stress period:     1    Time step:     8
 

 SLN_1 OUTER ITERATION SUMMARY
 ----------------------------------------------------------------------------------------------------------
                                OUTER      INNER                    STEP   MAXIMUM CHANGE MODEL-(CELLID) OR
 OUTER ITERATION STEP       ITERATION  ITERATION  MAXIMUM CHANGE SUCCESS             MODEL-PACKAGE-(NUMBER)
 ----------------------------------------------------------------------------------------------------------
 Model                              1          7       1.7224199                              1_GWF-(1,3,2)
 Model                              2          6      0.18966291                             1_GWF-(1,12,9)
 Model                              3          6      0.18209978                             1_GWF-(3,19,9)
 Model                              4          5  7.80293264E-02                             1_GWF-(3,19,9)
 Model                              5          5  2.46253139E-02                             1_GWF-(3,19,9)
 Model                              6          5  6.79940041E-03                             1_GWF-(3,19,9)
 Model                              7          5  1.74752502E-03                             1_GWF-(3,19,9)
 Model                              8          4  4.29698183E-04                             1_GWF-(3,19,9)
 Model                              9          4  1.02543376E-04                             1_GWF-(3,19,9)
 Model                             10          4  2.39492746E-05                             1_GWF-(3,19,9)
 Model                             11          3  5.50336044E-06                             1_GWF-(3,19,9)
 Model                             12          3  1.24874703E-06                             1_GWF-(3,19,9)
 Model                             13          3  2.80500700E-07                             1_GWF-(3,19,9)
 Model                             14          2  6.24909404E-08                             1_GWF-(3,19,9)
 Model                             15          2  1.38283696E-08                             1_GWF-(3,19,9)
 Model                             16          2  3.04180503E-09                             1_GWF-(3,19,9)
 Model                             17          1  6.65707489E-10       *                     1_GWF-(3,20,9)
 Package                           17            -2.90352634E-06                    1_GWF-SFR-1-(17)-inflow
 Model                             18          1  1.46457069E-10       *                     1_GWF-(3,20,9)
 Package                           18            -6.35734854E-07                    1_GWF-SFR-1-(17)-inflow
 Model                             19          1  3.31823458E-11       *                    1_GWF-(4,20,10)
 Package                           19            -1.38571968E-07                    1_GWF-SFR-1-(17)-inflow
 Model                             20          1  9.46442924E-12       *                    1_GWF-(5,18,10)
 Package                           20            -3.00957318E-08                    1_GWF-SFR-1-(17)-inflow
 Model                             21          1 -6.43751719E-12       *                    1_GWF-(4,14,16)
 Package                           21            -6.53147978E-09                    1_GWF-SFR-1-(17)-inflow
 Model                             22          1  7.38964445E-12       *                      1_GWF-(5,5,4)
 Package                           22            -1.47090362E-09                    1_GWF-SFR-1-(17)-inflow
 Model                             23          1 -5.91171556E-12       *                     1_GWF-(5,22,8)
 Package                           23            -3.54360776E-10       *            1_GWF-SFR-1-(17)-inflow
 ----------------------------------------------------------------------------------------------------------


 23 CALLS TO NUMERICAL SOLUTION IN TIME STEP 8 STRESS PERIOD 1
 73 TOTAL ITERATIONS
 
    Solving:  Stress period:     1    Time step:     9
 

 SLN_1 OUTER ITERATION SUMMARY
 ----------------------------------------------------------------------------------------------------------
                                OUTER      INNER                    STEP   MAXIMUM CHANGE MODEL-(CELLID) OR
 OUTER ITERATION STEP       ITERATION  ITERATION  MAXIMUM CHANGE SUCCESS             MODEL-PACKAGE-(NUMBER)
 ----------------------------------------------------------------------------------------------------------
 Model                              1          7       1.5411349                              1_GWF-(1,3,2)
 Model                              2          6      0.18110049                             1_GWF-(1,12,9)
 Model                              3          6      0.17256746                             1_GWF-(3,19,9)
 Model                              4          5  7.83748924E-02                             1_GWF-(3,19,9)
 Model                              5          5  2.54600248E-02                             1_GWF-(3,19,9)
 Model                              6          5  7.17865153E-03                             1_GWF-(3,19,9)
 Model                              7          5  1.87812612E-03                             1_GWF-(3,19,9)
 Model                              8          4  4.69365454E-04                             1_GWF-(3,19,9)
 Model                              9          4  1.13737367E-04                             1_GWF-(3,19,9)
 Model                             10          4  2.69572517E-05                             1_GWF-(3,19,9)
 Model                             11          3  6.28367353E-06                             1_GWF-(3,19,9)
 Model                             12          3  1.44584334E-06                             1_GWF-(3,19,9)
 Model                             13          3  3.29252956E-07                             1_GWF-(3,19,9)
 Model                             14          2  7.43463886E-08                             1_GWF-(3,19,9)
 Model                             15          2  1.66714642E-08                             1_GWF-(3,19,9)
 Model                             16          2  3.71612430E-09                             1_GWF-(3,19,9)
 Model                             17          1  8.23575874E-10       *                     1_GWF-(3,19,8)
 Package                           17            -3.39388127E-06                    1_GWF-SFR-1-(17)-inflow
 Model                             18          1  1.82936333E-10       *                    1_GWF-(3,19,10)
 Package                           18            -7.52593087E-07                    1_GWF-SFR-1-(17)-inflow
 Model                             19          1  4.11546353E-11       *                    1_GWF-(3,17,10)
 Package                           19            -1.66276327E-07                    1_GWF-SFR-1-(17)-inflow
 Model                             20          1  1.08570930E-11       *                     1_GWF-(5,17,8)
 Package                           20            -3.66933357E-08                    1_GWF-SFR-1-(17)-inflow
 Model                             21          1  6.62225830E-12       *                     1_GWF-(5,27,4)
 Package                           21            -8.07340030E-09                    1_GWF-SFR-1-(17)-inflow
 Model                             22          1  7.78754838E-12       *                     1_GWF-(5,15,2)
 Package                           22            -1.66726111E-09                    1_GWF-SFR-1-(17)-inflow
 Model                             23          1  6.59383659E-12       *                     1_GWF-(4,23,2)
 Package                           23            -3.38506460E-10       *            1_GWF-SFR-1-(17)-inflow
 ----------------------------------------------------------------------------------------------------------


 23 CALLS TO NUMERICAL SOLUTION IN TIME STEP 9 STRESS PERIOD 1
 73 TOTAL ITERATIONS
 
    Solving:  Stress period:     1    Time step:    10
 

 SLN_1 OUTER ITERATION SUMMARY
 ----------------------------------------------------------------------------------------------------------
                                OUTER      INNER                    STEP   MAXIMUM CHANGE MODEL-(CELLID) OR
 OUTER ITERATION STEP       ITERATION  ITERATION  MAXIMUM CHANGE SUCCESS             MODEL-PACKAGE-(NUMBER)
 ----------------------------------------------------------------------------------------------------------
 Model                              1          7       1.3823529                              1_GWF-(1,3,2)
 Model                              2          6      0.17614888                             1_GWF-(1,12,9)
 Model                              3          6      0.16755800                             1_GWF-(3,19,9)
 Model                              4          5  7.89683460E-02                             1_GWF-(3,19,9)
 Model                              5          5  2.62396835E-02                             1_GWF-(3,19,9)
 Model                              6          5  7.51748788E-03                             1_GWF-(3,19,9)
 Model                              7          5  1.99306362E-03                             1_GWF-(3,19,9)
 Model                              8          4  5.04084737E-04                             1_GWF-(3,19,9)
 Model                              9          4  1.23527833E-04                             1_GWF-(3,19,9)
 Model                             10          4  2.95935287E-05                             1_GWF-(3,19,9)
 Model                             11          3  6.97023476E-06                             1_GWF-(3,19,9)
 Model                             12          3  1.62016133E-06                             1_GWF-(3,19,9)
 Model                             13          3  3.72635384E-07                             1_GWF-(3,19,9)
 Model                             14          2  8.49703241E-08                             1_GWF-(3,19,9)
 Model                             15          2  1.92349034E-08                             1_GWF-(3,19,9)
 Model                             16          2  4.32902425E-09                             1_GWF-(3,19,9)
 Model                             17          1  9.69237135E-10       *                    1_GWF-(3,18,10)
 Package                           17            -3.83940387E-06                    1_GWF-SFR-1-(17)-inflow
 Model                             18          1  2.18349783E-10       *                     1_GWF-(3,19,9)
 Package                           18            -8.59466226E-07                    1_GWF-SFR-1-(17)-inflow
 Model                             19          1  4.97095698E-11       *                    1_GWF-(4,19,10)
 Package                           19            -1.91612920E-07                    1_GWF-SFR-1-(17)-inflow
 Model                             20          1  1.19086963E-11       *                     1_GWF-(5,19,8)
 Package                           20            -4.27073521E-08                    1_GWF-SFR-1-(17)-inflow
 Model                             21          1 -7.81597009E-12       *                     1_GWF-(5,4,14)
 Package                           21            -9.42056681E-09                    1_GWF-SFR-1-(17)-inflow
 Model                             22          1  6.57962573E-12       *                      1_GWF-(4,2,6)
 Package                           22            -2.05720080E-09                    1_GWF-SFR-1-(17)-inflow
 Model                             23          1  9.33653155E-12       *                    1_GWF-(5,16,12)
 Package                           23            -3.66023382E-10       *            1_GWF-SFR-1-(17)-inflow
 ----------------------------------------------------------------------------------------------------------


 23 CALLS TO NUMERICAL SOLUTION IN TIME STEP 10 STRESS PERIOD 1
 73 TOTAL ITERATIONS
 
    Solving:  Stress period:     1    Time step:    11
 

 SLN_1 OUTER ITERATION SUMMARY
 ----------------------------------------------------------------------------------------------------------
                                OUTER      INNER                    STEP   MAXIMUM CHANGE MODEL-(CELLID) OR
 OUTER ITERATION STEP       ITERATION  ITERATION  MAXIMUM CHANGE SUCCESS             MODEL-PACKAGE-(NUMBER)
 ----------------------------------------------------------------------------------------------------------
 Model                              1          7       1.2433901                              1_GWF-(1,3,2)
 Model                              2          6      0.17819025                              1_GWF-(3,9,9)
 Model                              3          6      0.16528357                             1_GWF-(3,19,9)
 Model                              4          5  7.98114490E-02                             1_GWF-(3,19,9)
 Model                              5          5  2.68408925E-02                             1_GWF-(3,19,9)
 Model                              6          5  7.76230268E-03                             1_GWF-(3,19,9)
 Model                              7          5  2.07527563E-03                             1_GWF-(3,19,9)
 Model                              8          4  5.29025286E-04                             1_GWF-(3,19,9)
 Model                              9          4  1.30625663E-04                             1_GWF-(3,19,9)
 Model                             10          4  3.15258678E-05                             1_GWF-(3,19,9)
 Model                             11          3  7.47933943E-06                             1_GWF-(3,19,9)
 Model                             12          3  1.75094060E-06                             1_GWF-(3,19,9)
 Model                             13          3  4.05560002E-07                             1_GWF-(3,19,9)
 Model                             14          2  9.31268005E-08                             1_GWF-(3,19,9)
 Model                             15          2  2.12263984E-08                             1_GWF-(3,19,9)
 Model                             16          2  4.81055906E-09                             1_GWF-(3,19,9)
 Model                             17          2  1.08369136E-09                            1_GWF-(3,19,10)
 Model                             18          1  2.44043008E-10       *                    1_GWF-(3,18,10)
 Package                           18            -9.44334627E-07                    1_GWF-SFR-1-(17)-inflow
 Model                             19          1  5.56781288E-11       *                     1_GWF-(3,19,9)
 Package                           19            -2.11713738E-07                    1_GWF-SFR-1-(17)-inflow
 Model                             20          1  1.42819090E-11       *                     1_GWF-(5,17,9)
 Package                           20            -4.73810321E-08                    1_GWF-SFR-1-(17)-inflow
 Model                             21          1 -7.75912667E-12       *                     1_GWF-(5,9,14)
 Package                           21            -1.05029145E-08                    1_GWF-SFR-1-(17)-inflow
 Model                             22          1 -6.36646291E-12       *                     1_GWF-(5,4,14)
 Package                           22            -2.39147673E-09                    1_GWF-SFR-1-(17)-inflow
 Model                             23          1 -7.73070497E-12       *                     1_GWF-(4,13,2)
 Package                           23            -5.72800448E-10       *            1_GWF-SFR-1-(17)-inflow
 ----------------------------------------------------------------------------------------------------------


 23 CALLS TO NUMERICAL SOLUTION IN TIME STEP 11 STRESS PERIOD 1
 74 TOTAL ITERATIONS
 
    Solving:  Stress period:     1    Time step:    12
 

 SLN_1 OUTER ITERATION SUMMARY
 ----------------------------------------------------------------------------------------------------------
                                OUTER      INNER                    STEP   MAXIMUM CHANGE MODEL-(CELLID) OR
 OUTER ITERATION STEP       ITERATION  ITERATION  MAXIMUM CHANGE SUCCESS             MODEL-PACKAGE-(NUMBER)
 ----------------------------------------------------------------------------------------------------------
 Model                              1          7       1.1218079                              1_GWF-(1,3,2)
 Model                              2          6      0.18097893                              1_GWF-(3,9,9)
 Model                              3          6      0.16461575                             1_GWF-(3,19,9)
 Model                              4          5  8.07082307E-02                             1_GWF-(3,19,9)
 Model                              5          5  2.74324445E-02                             1_GWF-(3,19,9)
 Model                              6          5  7.98866727E-03                             1_GWF-(3,19,9)
 Model                              7          5  2.14899921E-03                             1_GWF-(3,19,9)
 Model                              8          5  5.51003671E-04                             1_GWF-(3,19,9)
 Model                              9          4  1.36814606E-04                             1_GWF-(3,19,9)
 Model                             10          4  3.31999164E-05                             1_GWF-(3,19,9)
 Model                             11          3  7.91873921E-06                             1_GWF-(3,19,9)
 Model                             12          3  1.86360634E-06                             1_GWF-(3,19,9)
 Model                             13          3  4.33911069E-07                             1_GWF-(3,19,9)
 Model                             14          2  1.00148768E-07                             1_GWF-(3,19,9)
 Model                             15          2  2.29458692E-08                             1_GWF-(3,19,9)
 Model                             16          2  5.22707921E-09                             1_GWF-(3,19,9)
 Model                             17          2  1.18376420E-09                             1_GWF-(3,18,9)
 Model                             18          1  2.67419864E-10       *                    1_GWF-(3,20,10)
 Package                           18            -1.02087338E-06                    1_GWF-SFR-1-(17)-inflow
 Model                             19          1  6.09787776E-11       *                     1_GWF-(3,20,8)
 Package                           19            -2.30134825E-07                    1_GWF-SFR-1-(17)-inflow
 Model                             20          1  1.56887836E-11       *                     1_GWF-(5,18,8)
 Package                           20            -5.17469636E-08                    1_GWF-SFR-1-(17)-inflow
 Model                             21          1  6.45172804E-12       *                     1_GWF-(5,3,13)
 Package                           21            -1.16310949E-08                    1_GWF-SFR-1-(17)-inflow
 Model                             22          1  5.96855898E-12       *                     1_GWF-(4,14,2)
 Package                           22            -2.64033927E-09                    1_GWF-SFR-1-(17)-inflow
 Model                             23          1  6.45172804E-12       *                      1_GWF-(5,1,2)
 Package                           23            -5.84825933E-10       *            1_GWF-SFR-1-(17)-inflow
 ----------------------------------------------------------------------------------------------------------


 23 CALLS TO NUMERICAL SOLUTION IN TIME STEP 12 STRESS PERIOD 1
 75 TOTAL ITERATIONS
 
    Solving:  Stress period:     1    Time step:    13
 

 SLN_1 OUTER ITERATION SUMMARY
 ----------------------------------------------------------------------------------------------------------
                                OUTER      INNER                    STEP   MAXIMUM CHANGE MODEL-(CELLID) OR
 OUTER ITERATION STEP       ITERATION  ITERATION  MAXIMUM CHANGE SUCCESS             MODEL-PACKAGE-(NUMBER)
 ----------------------------------------------------------------------------------------------------------
 Model                              1          7       1.0154154                              1_GWF-(1,3,2)
 Model                              2          6      0.18325735                              1_GWF-(3,9,9)
 Model                              3          6      0.16494152                             1_GWF-(3,19,9)
 Model                              4          5  8.16899761E-02                             1_GWF-(3,19,9)
 Model                              5          5  2.79073532E-02                             1_GWF-(3,19,9)
 Model                              6          5  8.16993765E-03                             1_GWF-(3,19,9)
 Model                              7          5  2.20812257E-03                             1_GWF-(3,19,9)
 Model                              8          5  5.68666934E-04                             1_GWF-(3,19,9)
 Model                              9          4  1.41801494E-04                             1_GWF-(3,19,9)
 Model                             10          4  3.45528608E-05                             1_GWF-(3,19,9)
 Model                             11          3  8.27502464E-06                             1_GWF-(3,19,9)
 Model                             12          3  1.95527984E-06                             1_GWF-(3,19,9)
 Model                             13          3  4.57064530E-07                             1_GWF-(3,19,9)
 Model                             14          2  1.05908214E-07                             1_GWF-(3,19,9)
 Model                             15          2  2.43590108E-08                             1_GWF-(3,19,9)
 Model                             16          2  5.56920554E-09                             1_GWF-(3,19,9)
 Model                             17          2  1.26692612E-09                             1_GWF-(3,19,9)
 Model                             18          1  2.87386115E-10       *                     1_GWF-(3,18,8)
 Package                           18            -1.08776678E-06                    1_GWF-SFR-1-(17)-inflow
 Model                             19          1  6.59383659E-11       *                    1_GWF-(3,20,10)
 Package                           19            -2.46283633E-07                    1_GWF-SFR-1-(17)-inflow
 Model                             20          1  1.60298441E-11       *                     1_GWF-(4,18,7)
 Package                           20            -5.54751136E-08                    1_GWF-SFR-1-(17)-inflow
 Model                             21          1 -6.93489710E-12       *                      1_GWF-(4,2,5)
 Package                           21            -1.26192950E-08                    1_GWF-SFR-1-(17)-inflow
 Model                             22          1 -7.37543360E-12       *                    1_GWF-(4,26,10)
 Package                           22            -2.71961681E-09                    1_GWF-SFR-1-(17)-inflow
 Model                             23          1  7.00595137E-12       *                     1_GWF-(4,5,12)
 Package                           23            -7.04520164E-10       *            1_GWF-SFR-1-(17)-inflow
 ----------------------------------------------------------------------------------------------------------


 23 CALLS TO NUMERICAL SOLUTION IN TIME STEP 13 STRESS PERIOD 1
 75 TOTAL ITERATIONS
 
    Solving:  Stress period:     1    Time step:    14
 

 SLN_1 OUTER ITERATION SUMMARY
 ----------------------------------------------------------------------------------------------------------
                                OUTER      INNER                    STEP   MAXIMUM CHANGE MODEL-(CELLID) OR
 OUTER ITERATION STEP       ITERATION  ITERATION  MAXIMUM CHANGE SUCCESS             MODEL-PACKAGE-(NUMBER)
 ----------------------------------------------------------------------------------------------------------
 Model                              1          7      0.92226101                              1_GWF-(1,3,2)
 Model                              2          6      0.18503026                              1_GWF-(3,9,9)
 Model                              3          6      0.16584108                             1_GWF-(3,19,9)
 Model                              4          5  8.26587196E-02                             1_GWF-(3,19,9)
 Model                              5          5  2.84170179E-02                             1_GWF-(3,19,9)
 Model                              6          5  8.35020391E-03                             1_GWF-(3,19,9)
 Model                              7          5  2.26454026E-03                             1_GWF-(3,19,9)
 Model                              8          5  5.85104118E-04                             1_GWF-(3,19,9)
 Model                              9          4  1.46365901E-04                             1_GWF-(3,19,9)
 Model                             10          4  3.57770578E-05                             1_GWF-(3,19,9)
 Model                             11          3  8.59479188E-06                             1_GWF-(3,19,9)
 Model                             12          3  2.03707528E-06                             1_GWF-(3,19,9)
 Model                             13          3  4.77636419E-07                             1_GWF-(3,19,9)
 Model                             14          2  1.11009484E-07                             1_GWF-(3,19,9)
 Model                             15          2  2.56119819E-08                             1_GWF-(3,19,9)
 Model                             16          2  5.87340310E-09                             1_GWF-(3,19,9)
 Model                             17          2  1.33985623E-09                             1_GWF-(3,19,9)
 Model                             18          1  3.04964942E-10       *                     1_GWF-(3,19,9)
 Package                           18            -1.15087659E-06                    1_GWF-SFR-1-(17)-inflow
 Model                             19          1  7.00026703E-11       *                     1_GWF-(3,20,8)
 Package                           19            -2.61255914E-07                    1_GWF-SFR-1-(17)-inflow
 Model                             20          1  1.62856395E-11       *                     1_GWF-(4,19,9)
 Package                           20            -5.90711674E-08                    1_GWF-SFR-1-(17)-inflow
 Model                             21          1 -6.65068001E-12       *                     1_GWF-(5,5,12)
 Package                           21            -1.33559248E-08                    1_GWF-SFR-1-(17)-inflow
 Model                             22          1 -6.12487838E-12       *                     1_GWF-(5,4,14)
 Package                           22            -2.97412797E-09                    1_GWF-SFR-1-(17)-inflow
 Model                             23          1 -7.24753590E-12       *                     1_GWF-(5,15,2)
 Package                           23            -7.05538923E-10       *            1_GWF-SFR-1-(17)-inflow
 ----------------------------------------------------------------------------------------------------------


 23 CALLS TO NUMERICAL SOLUTION IN TIME STEP 14 STRESS PERIOD 1
 75 TOTAL ITERATIONS
 
    Solving:  Stress period:     1    Time step:    15
 

 SLN_1 OUTER ITERATION SUMMARY
 ----------------------------------------------------------------------------------------------------------
                                OUTER      INNER                    STEP   MAXIMUM CHANGE MODEL-(CELLID) OR
 OUTER ITERATION STEP       ITERATION  ITERATION  MAXIMUM CHANGE SUCCESS             MODEL-PACKAGE-(NUMBER)
 ----------------------------------------------------------------------------------------------------------
 Model                              1          7      0.91060031                              1_GWF-(1,3,3)
 Model                              2          6      0.18671336                              1_GWF-(3,9,9)
 Model                              3          6      0.16711975                             1_GWF-(3,19,9)
 Model                              4          5  8.36819302E-02                             1_GWF-(3,19,9)
 Model                              5          5  2.89042038E-02                             1_GWF-(3,19,9)
 Model                              6          5  8.53048408E-03                             1_GWF-(3,19,9)
 Model                              7          5  2.32162276E-03                             1_GWF-(3,19,9)
 Model                              8          5  6.01732676E-04                             1_GWF-(3,19,9)
 Model                              9          4  1.50963574E-04                             1_GWF-(3,19,9)
 Model                             10          4  3.70031817E-05                             1_GWF-(3,19,9)
 Model                             11          3  8.91316806E-06                             1_GWF-(3,19,9)
 Model                             12          3  2.11806265E-06                             1_GWF-(3,19,9)
 Model                             13          3  4.97900800E-07                             1_GWF-(3,19,9)
 Model                             14          2  1.16010895E-07                             1_GWF-(3,19,9)
 Model                             15          2  2.68325948E-08                             1_GWF-(3,19,9)
 Model                             16          2  6.16856255E-09                             1_GWF-(3,19,9)
 Model                             17          2  1.41075418E-09                             1_GWF-(3,18,9)
 Model                             18          1  3.21321636E-10       *                    1_GWF-(3,19,10)
 Package                           18            -1.21554095E-06                    1_GWF-SFR-1-(17)-inflow
 Model                             19          1  7.43796136E-11       *                     1_GWF-(3,19,8)
 Package                           19            -2.76579087E-07                    1_GWF-SFR-1-(17)-inflow
 Model                             20          1  1.87583282E-11       *                     1_GWF-(4,20,8)
 Package                           20            -6.26203962E-08                    1_GWF-SFR-1-(17)-inflow
 Model                             21          1 -7.09121650E-12       *                    1_GWF-(5,17,12)
 Package                           21            -1.42719213E-08                    1_GWF-SFR-1-(17)-inflow
 Model                             22          1 -8.05755462E-12       *                      1_GWF-(5,1,4)
 Package                           22            -3.17105182E-09                    1_GWF-SFR-1-(17)-inflow
 Model                             23          1 -6.35225206E-12       *                      1_GWF-(4,6,6)
 Package                           23            -7.27556397E-10       *            1_GWF-SFR-1-(17)-inflow
 ----------------------------------------------------------------------------------------------------------


 23 CALLS TO NUMERICAL SOLUTION IN TIME STEP 15 STRESS PERIOD 1
 75 TOTAL ITERATIONS
 
    Solving:  Stress period:     1    Time step:    16
 

 SLN_1 OUTER ITERATION SUMMARY
 ----------------------------------------------------------------------------------------------------------
                                OUTER      INNER                    STEP   MAXIMUM CHANGE MODEL-(CELLID) OR
 OUTER ITERATION STEP       ITERATION  ITERATION  MAXIMUM CHANGE SUCCESS             MODEL-PACKAGE-(NUMBER)
 ----------------------------------------------------------------------------------------------------------
 Model                              1          7      0.89634294                              1_GWF-(1,3,3)
 Model                              2          6      0.18839022                              1_GWF-(3,9,9)
 Model                              3          6      0.16866041                             1_GWF-(3,19,9)
 Model                              4          5  8.47583355E-02                             1_GWF-(3,19,9)
 Model                              5          5  2.93216336E-02                             1_GWF-(3,19,9)
 Model                              6          5  8.66909283E-03                             1_GWF-(3,19,9)
 Model                              7          5  2.36376905E-03                             1_GWF-(3,19,9)
 Model                              8          5  6.13832096E-04                             1_GWF-(3,19,9)
 Model                              9          4  1.54298244E-04                             1_GWF-(3,19,9)
 Model                             10          4  3.78945193E-05                             1_GWF-(3,19,9)
 Model                             11          4  9.14578872E-06                             1_GWF-(3,19,9)
 Model                             12          3  2.17761676E-06                             1_GWF-(3,19,9)
 Model                             13          3  5.12906269E-07                             1_GWF-(3,19,9)
 Model                             14          2  1.19745110E-07                             1_GWF-(3,19,9)
 Model                             15          2  2.77477596E-08                             1_GWF-(3,19,9)
 Model                             16          2  6.39215614E-09                             1_GWF-(3,19,9)
 Model                             17          2  1.46454227E-09                             1_GWF-(3,19,9)
 Model                             18          1  3.35063532E-10       *                    1_GWF-(3,19,10)
 Package                           18            -1.26870008E-06                    1_GWF-SFR-1-(17)-inflow
 Model                             19          1  7.66675612E-11       *                     1_GWF-(2,20,7)
 Package                           19            -2.89272622E-07                    1_GWF-SFR-1-(17)-inflow
 Model                             20          1  1.93125516E-11       *                     1_GWF-(4,18,9)
 Package                           20            -6.57732804E-08                    1_GWF-SFR-1-(17)-inflow
 Model                             21          1 -8.21387403E-12       *                     1_GWF-(5,24,3)
 Package                           21            -1.48987686E-08                    1_GWF-SFR-1-(17)-inflow
 Model                             22          1 -6.83542112E-12       *                     1_GWF-(4,25,9)
 Package                           22            -3.32094102E-09                    1_GWF-SFR-1-(17)-inflow
 Model                             23          1 -6.29540864E-12       *                    1_GWF-(4,25,15)
 Package                           23            -7.82652657E-10       *            1_GWF-SFR-1-(17)-inflow
 ----------------------------------------------------------------------------------------------------------


 23 CALLS TO NUMERICAL SOLUTION IN TIME STEP 16 STRESS PERIOD 1
 76 TOTAL ITERATIONS
 
    Solving:  Stress period:     1    Time step:    17
 

 SLN_1 OUTER ITERATION SUMMARY
 ----------------------------------------------------------------------------------------------------------
                                OUTER      INNER                    STEP   MAXIMUM CHANGE MODEL-(CELLID) OR
 OUTER ITERATION STEP       ITERATION  ITERATION  MAXIMUM CHANGE SUCCESS             MODEL-PACKAGE-(NUMBER)
 ----------------------------------------------------------------------------------------------------------
 Model                              1          7      0.87939334                              1_GWF-(1,3,3)
 Model                              2          6      0.18984853                              1_GWF-(3,9,9)
 Model                              3          6      0.17033095                             1_GWF-(3,19,9)
 Model                              4          5  8.58000588E-02                             1_GWF-(3,19,9)
 Model                              5          5  2.98527192E-02                             1_GWF-(3,19,9)
 Model                              6          5  8.84566051E-03                             1_GWF-(3,19,9)
 Model                              7          5  2.41660995E-03                             1_GWF-(3,19,9)
 Model                              8          5  6.28715783E-04                             1_GWF-(3,19,9)
 Model                              9          4  1.58323916E-04                             1_GWF-(3,19,9)
 Model                             10          4  3.89519310E-05                             1_GWF-(3,19,9)
 Model                             11          4  9.41741315E-06                             1_GWF-(3,19,9)
 Model                             12          3  2.24617123E-06                             1_GWF-(3,19,9)
 Model                             13          3  5.29963771E-07                             1_GWF-(3,19,9)
 Model                             14          3  1.23938833E-07                             1_GWF-(3,19,9)
 Model                             15          2  2.87713107E-08                             1_GWF-(3,19,9)
 Model                             16          2  6.63807498E-09                             1_GWF-(3,19,9)
 Model                             17          2  1.52265045E-09                             1_GWF-(3,19,9)
 Model                             18          1  3.48791218E-10       *                    1_GWF-(3,20,10)
 Package                           18            -1.32858631E-06                    1_GWF-SFR-1-(17)-inflow
 Model                             19          1  8.02913291E-11       *                    1_GWF-(3,18,10)
 Package                           19            -3.03422169E-07                    1_GWF-SFR-1-(17)-inflow
 Model                             20          1  1.92841298E-11       *                     1_GWF-(5,20,7)
 Package                           20            -6.90594490E-08                    1_GWF-SFR-1-(17)-inflow
 Model                             21          1  6.16751095E-12       *                    1_GWF-(3,22,10)
 Package                           21            -1.56633586E-08                    1_GWF-SFR-1-(17)-inflow
 Model                             22          1  6.28119778E-12       *                      1_GWF-(5,6,5)
 Package                           22            -3.56750410E-09                    1_GWF-SFR-1-(17)-inflow
 Model                             23          1 -7.27595761E-12       *                    1_GWF-(4,25,16)
 Package                           23            -8.01373427E-10       *            1_GWF-SFR-1-(17)-inflow
 ----------------------------------------------------------------------------------------------------------


 23 CALLS TO NUMERICAL SOLUTION IN TIME STEP 17 STRESS PERIOD 1
 77 TOTAL ITERATIONS
 
    Solving:  Stress period:     1    Time step:    18
 

 SLN_1 OUTER ITERATION SUMMARY
 ----------------------------------------------------------------------------------------------------------
                                OUTER      INNER                    STEP   MAXIMUM CHANGE MODEL-(CELLID) OR
 OUTER ITERATION STEP       ITERATION  ITERATION  MAXIMUM CHANGE SUCCESS             MODEL-PACKAGE-(NUMBER)
 ----------------------------------------------------------------------------------------------------------
 Model                              1          7      0.86016938                              1_GWF-(1,3,3)
 Model                              2          6      0.19157821                              1_GWF-(3,9,9)
 Model                              3          6      0.17215416                             1_GWF-(3,19,9)
 Model                              4          5  8.69500404E-02                             1_GWF-(3,19,9)
 Model                              5          5  3.03033914E-02                             1_GWF-(3,19,9)
 Model                              6          5  9.00580535E-03                             1_GWF-(3,19,9)
 Model                              7          5  2.46612661E-03                             1_GWF-(3,19,9)
 Model                              8          5  6.42898651E-04                             1_GWF-(3,19,9)
 Model                              9          4  1.62195741E-04                             1_GWF-(3,19,9)
 Model                             10          4  3.99743767E-05                             1_GWF-(3,19,9)
 Model                             11          4  9.68088112E-06                             1_GWF-(3,19,9)
 Model                             12          3  2.31279040E-06                             1_GWF-(3,19,9)
 Model                             13          3  5.46556635E-07                             1_GWF-(3,19,9)
 Model                             14          3  1.28018627E-07                             1_GWF-(3,19,9)
 Model                             15          2  2.97660705E-08                             1_GWF-(3,19,9)
 Model                             16          2  6.87860791E-09                             1_GWF-(3,19,9)
 Model                             17          2  1.57976388E-09                             1_GWF-(3,19,9)
 Model                             18          1  3.62504693E-10       *                    1_GWF-(3,18,10)
 Package                           18            -1.38938207E-06                    1_GWF-SFR-1-(17)-inflow
 Model                             19          1  8.38440428E-11       *                     1_GWF-(3,20,8)
 Package                           19            -3.17756398E-07                    1_GWF-SFR-1-(17)-inflow
 Model                             20          1  2.01083594E-11       *                     1_GWF-(4,19,9)
 Package                           20            -7.24795621E-08                    1_GWF-SFR-1-(17)-inflow
 Model                             21          1  7.10542736E-12       *                     1_GWF-(5,26,2)
 Package                           21            -1.64786450E-08                    1_GWF-SFR-1-(17)-inflow
 Model                             22          1  6.89226454E-12       *                      1_GWF-(5,8,6)
 Package                           22            -3.77158303E-09                    1_GWF-SFR-1-(17)-inflow
 Model                             23          1  7.06279479E-12       *                     1_GWF-(4,2,15)
 Package                           23            -8.61352669E-10       *            1_GWF-SFR-1-(17)-inflow
 ----------------------------------------------------------------------------------------------------------


 23 CALLS TO NUMERICAL SOLUTION IN TIME STEP 18 STRESS PERIOD 1
 77 TOTAL ITERATIONS
 
    Solving:  Stress period:     1    Time step:    19
 

 SLN_1 OUTER ITERATION SUMMARY
 ----------------------------------------------------------------------------------------------------------
                                OUTER      INNER                    STEP   MAXIMUM CHANGE MODEL-(CELLID) OR
 OUTER ITERATION STEP       ITERATION  ITERATION  MAXIMUM CHANGE SUCCESS             MODEL-PACKAGE-(NUMBER)
 ----------------------------------------------------------------------------------------------------------
 Model                              1          7      0.83932315                              1_GWF-(1,3,3)
 Model                              2          6      0.19327217                              1_GWF-(3,9,9)
 Model                              3          6      0.17407192                             1_GWF-(3,19,9)
 Model                              4          5  8.81131140E-02                             1_GWF-(3,19,9)
 Model                              5          5  3.07270849E-02                             1_GWF-(3,19,9)
 Model                              6          5  9.14056646E-03                             1_GWF-(3,19,9)
 Model                              7          5  2.50583439E-03                             1_GWF-(3,19,9)
 Model                              8          5  6.54030226E-04                             1_GWF-(3,19,9)
 Model                              9          4  1.65207932E-04                             1_GWF-(3,19,9)
 Model                             10          4  4.07680765E-05                             1_GWF-(3,19,9)
 Model                             11          4  9.88570734E-06                             1_GWF-(3,19,9)
 Model                             12          3  2.36476471E-06                             1_GWF-(3,19,9)
[...]
 Package                           26            -8.59378256E-09                    1_GWF-SFR-1-(17)-inflow
 Model                             27          1 -1.31592515E-11       *                    1_GWF-(4,14,13)
 Package                           27            -2.90560948E-09                    1_GWF-SFR-1-(17)-inflow
 Model                             28          1  1.24487087E-11       *                     1_GWF-(4,6,14)
 Package                           28            -9.78970206E-10       *            1_GWF-SFR-1-(17)-inflow
 ----------------------------------------------------------------------------------------------------------


 28 CALLS TO NUMERICAL SOLUTION IN TIME STEP 196 STRESS PERIOD 1
 123 TOTAL ITERATIONS
 
    Solving:  Stress period:     1    Time step:   197
 

 SLN_1 OUTER ITERATION SUMMARY
 ----------------------------------------------------------------------------------------------------------
                                OUTER      INNER                    STEP   MAXIMUM CHANGE MODEL-(CELLID) OR
 OUTER ITERATION STEP       ITERATION  ITERATION  MAXIMUM CHANGE SUCCESS             MODEL-PACKAGE-(NUMBER)
 ----------------------------------------------------------------------------------------------------------
 Model                              1         10     -0.65145168                             1_GWF-(3,19,9)
 Model                              2         10      0.38806940                             1_GWF-(1,12,9)
 Model                              3          8      0.34759100                             1_GWF-(3,19,9)
 Model                              4          8      0.22668965                             1_GWF-(3,19,9)
 Model                              5          8  9.82908416E-02                             1_GWF-(3,19,9)
 Model                              6          8  3.63566425E-02                             1_GWF-(3,19,9)
 Model                              7          7  1.23981570E-02                             1_GWF-(3,19,9)
 Model                              8          7  4.02839536E-03                             1_GWF-(3,19,9)
 Model                              9          7  1.26784744E-03                             1_GWF-(3,19,9)
 Model                             10          6  3.90130147E-04                             1_GWF-(3,19,9)
 Model                             11          6  1.18050851E-04                             1_GWF-(3,19,9)
 Model                             12          5  3.52624738E-05                             1_GWF-(3,19,9)
 Model                             13          5  1.04257272E-05                             1_GWF-(3,19,9)
 Model                             14          4  3.05701725E-06                             1_GWF-(3,19,9)
 Model                             15          4  8.90279154E-07                             1_GWF-(3,19,9)
 Model                             16          3  2.57797538E-07                             1_GWF-(3,19,9)
 Model                             17          3  7.42910373E-08                             1_GWF-(3,19,9)
 Model                             18          2  2.13221227E-08                             1_GWF-(3,19,9)
 Model                             19          2  6.09841777E-09                             1_GWF-(3,19,9)
 Model                             20          2  1.73878334E-09                             1_GWF-(3,18,9)
 Model                             21          1  4.95262498E-10       *                     1_GWF-(3,18,8)
 Package                           21            -4.94829507E-06                    1_GWF-SFR-1-(17)-inflow
 Model                             22          1  1.41071155E-10       *                     1_GWF-(3,19,9)
 Package                           22            -1.40692161E-06                    1_GWF-SFR-1-(17)-inflow
 Model                             23          1  4.07709422E-11       *                    1_GWF-(2,17,10)
 Package                           23            -3.99648264E-07                    1_GWF-SFR-1-(17)-inflow
 Model                             24          1  1.53761448E-11       *                    1_GWF-(4,15,15)
 Package                           24            -1.13442244E-07                    1_GWF-SFR-1-(17)-inflow
 Model                             25          1 -1.44098067E-11       *                     1_GWF-(4,27,2)
 Package                           25            -3.21730382E-08                    1_GWF-SFR-1-(17)-inflow
 Model                             26          1  1.31308298E-11       *                     1_GWF-(4,26,4)
 Package                           26            -9.21926033E-09                    1_GWF-SFR-1-(17)-inflow
 Model                             27          1  1.50919277E-11       *                     1_GWF-(4,5,14)
 Package                           27            -2.27959473E-09                    1_GWF-SFR-1-(17)-inflow
 Model                             28          1  1.61151092E-11       *                     1_GWF-(4,15,6)
 Package                           28            -7.43051338E-10       *            1_GWF-SFR-1-(17)-inflow
 ----------------------------------------------------------------------------------------------------------


 28 CALLS TO NUMERICAL SOLUTION IN TIME STEP 197 STRESS PERIOD 1
 123 TOTAL ITERATIONS
 
    Solving:  Stress period:     1    Time step:   198
 

 SLN_1 OUTER ITERATION SUMMARY
 ----------------------------------------------------------------------------------------------------------
                                OUTER      INNER                    STEP   MAXIMUM CHANGE MODEL-(CELLID) OR
 OUTER ITERATION STEP       ITERATION  ITERATION  MAXIMUM CHANGE SUCCESS             MODEL-PACKAGE-(NUMBER)
 ----------------------------------------------------------------------------------------------------------
 Model                              1         10     -0.65229178                             1_GWF-(3,19,9)
 Model                              2         10      0.38891581                             1_GWF-(1,12,9)
 Model                              3          8      0.34774790                             1_GWF-(3,19,9)
 Model                              4          8      0.22712272                             1_GWF-(3,19,9)
 Model                              5          8  9.86090228E-02                             1_GWF-(3,19,9)
 Model                              6          8  3.65208774E-02                             1_GWF-(3,19,9)
 Model                              7          7  1.24698125E-02                             1_GWF-(3,19,9)
 Model                              8          7  4.05674212E-03                             1_GWF-(3,19,9)
 Model                              9          7  1.27836333E-03                             1_GWF-(3,19,9)
 Model                             10          6  3.93857487E-04                             1_GWF-(3,19,9)
 Model                             11          6  1.19327792E-04                             1_GWF-(3,19,9)
 Model                             12          5  3.56885394E-05                             1_GWF-(3,19,9)
 Model                             13          5  1.05649280E-05                             1_GWF-(3,19,9)
 Model                             14          4  3.10172459E-06                             1_GWF-(3,19,9)
 Model                             15          4  9.04431687E-07                             1_GWF-(3,19,9)
 Model                             16          3  2.62225200E-07                             1_GWF-(3,19,9)
 Model                             17          3  7.56633511E-08                             1_GWF-(3,19,9)
 Model                             18          2  2.17434746E-08                             1_GWF-(3,19,9)
 Model                             19          2  6.22679863E-09                             1_GWF-(3,19,9)
 Model                             20          2  1.77722370E-09                             1_GWF-(3,18,9)
 Model                             21          1  5.06730657E-10       *                    1_GWF-(3,19,10)
 Package                           21            -5.08394828E-06                    1_GWF-SFR-1-(17)-inflow
 Model                             22          1  1.45050194E-10       *                    1_GWF-(3,20,10)
 Package                           22            -1.44719169E-06                    1_GWF-SFR-1-(17)-inflow
 Model                             23          1  4.22204494E-11       *                     1_GWF-(3,20,7)
 Package                           23            -4.11507640E-07                    1_GWF-SFR-1-(17)-inflow
 Model                             24          1  1.28039801E-11       *                    1_GWF-(4,17,10)
 Package                           24            -1.16997067E-07                    1_GWF-SFR-1-(17)-inflow
 Model                             25          1 -1.23066002E-11       *                     1_GWF-(5,2,15)
 Package                           25            -3.35101971E-08                    1_GWF-SFR-1-(17)-inflow
 Model                             26          1  1.14539489E-11       *                     1_GWF-(4,25,6)
 Package                           26            -9.16070029E-09                    1_GWF-SFR-1-(17)-inflow
 Model                             27          1 -1.29602995E-11       *                    1_GWF-(3,25,13)
 Package                           27            -2.67364244E-09                    1_GWF-SFR-1-(17)-inflow
 Model                             28          1  1.81046289E-11       *                     1_GWF-(4,2,16)
 Package                           28            -9.11382297E-10       *            1_GWF-SFR-1-(17)-inflow
 ----------------------------------------------------------------------------------------------------------


 28 CALLS TO NUMERICAL SOLUTION IN TIME STEP 198 STRESS PERIOD 1
 123 TOTAL ITERATIONS
 
    Solving:  Stress period:     1    Time step:   199
 

 SLN_1 OUTER ITERATION SUMMARY
 ----------------------------------------------------------------------------------------------------------
                                OUTER      INNER                    STEP   MAXIMUM CHANGE MODEL-(CELLID) OR
 OUTER ITERATION STEP       ITERATION  ITERATION  MAXIMUM CHANGE SUCCESS             MODEL-PACKAGE-(NUMBER)
 ----------------------------------------------------------------------------------------------------------
 Model                              1         10     -0.65312947                             1_GWF-(3,19,9)
 Model                              2         10      0.38976232                             1_GWF-(1,12,9)
 Model                              3          8      0.34790332                             1_GWF-(3,19,9)
 Model                              4          8      0.22755473                             1_GWF-(3,19,9)
 Model                              5          8  9.89269821E-02                             1_GWF-(3,19,9)
 Model                              6          8  3.66852285E-02                             1_GWF-(3,19,9)
 Model                              7          7  1.25416123E-02                             1_GWF-(3,19,9)
 Model                              8          7  4.08518221E-03                             1_GWF-(3,19,9)
 Model                              9          7  1.28892718E-03                             1_GWF-(3,19,9)
 Model                             10          6  3.97606552E-04                             1_GWF-(3,19,9)
 Model                             11          6  1.20613790E-04                             1_GWF-(3,19,9)
 Model                             12          5  3.61181657E-05                             1_GWF-(3,19,9)
 Model                             13          5  1.07054702E-05                             1_GWF-(3,19,9)
 Model                             14          4  3.14691560E-06                             1_GWF-(3,19,9)
 Model                             15          4  9.18760549E-07                             1_GWF-(3,19,9)
 Model                             16          3  2.66712576E-07                             1_GWF-(3,19,9)
 Model                             17          3  7.70543238E-08                             1_GWF-(3,19,9)
 Model                             18          2  2.21712639E-08                             1_GWF-(3,19,9)
 Model                             19          2  6.35466790E-09                             1_GWF-(3,19,9)
 Model                             20          2  1.81817938E-09                             1_GWF-(3,19,9)
 Model                             21          1  5.20003596E-10       *                     1_GWF-(3,19,9)
 Package                           21            -5.22297461E-06                    1_GWF-SFR-1-(17)-inflow
 Model                             22          1  1.47608148E-10       *                    1_GWF-(3,20,10)
 Package                           22            -1.48852118E-06                    1_GWF-SFR-1-(17)-inflow
 Model                             23          1  4.28457270E-11       *                    1_GWF-(2,21,11)
 Package                           23            -4.24182842E-07                    1_GWF-SFR-1-(17)-inflow
 Model                             24          1  1.31024080E-11       *                     1_GWF-(4,17,9)
 Package                           24            -1.20754971E-07                    1_GWF-SFR-1-(17)-inflow
 Model                             25          1 -1.30455646E-11       *                     1_GWF-(3,4,13)
 Package                           25            -3.39341234E-08                    1_GWF-SFR-1-(17)-inflow
 Model                             26          1 -1.26760824E-11       *                     1_GWF-(4,23,5)
 Package                           26            -9.64475222E-09                    1_GWF-SFR-1-(17)-inflow
 Model                             27          1  1.17950094E-11       *                     1_GWF-(3,6,16)
 Package                           27            -2.72754864E-09                    1_GWF-SFR-1-(17)-inflow
 Model                             28          1  1.35287337E-11       *                     1_GWF-(3,14,7)
 Package                           28            -1.18655761E-09                    1_GWF-SFR-1-(17)-inflow
 Model                             29          1 -1.13118404E-11       *                      1_GWF-(4,6,6)
 Package                           29            -3.29781940E-10       *            1_GWF-SFR-1-(22)-inflow
 ----------------------------------------------------------------------------------------------------------


 29 CALLS TO NUMERICAL SOLUTION IN TIME STEP 199 STRESS PERIOD 1
 124 TOTAL ITERATIONS
 
    Solving:  Stress period:     1    Time step:   200
 

 SLN_1 OUTER ITERATION SUMMARY
 ----------------------------------------------------------------------------------------------------------
                                OUTER      INNER                    STEP   MAXIMUM CHANGE MODEL-(CELLID) OR
 OUTER ITERATION STEP       ITERATION  ITERATION  MAXIMUM CHANGE SUCCESS             MODEL-PACKAGE-(NUMBER)
 ----------------------------------------------------------------------------------------------------------
 Model                              1         10     -0.65396476                             1_GWF-(3,19,9)
 Model                              2         10      0.39060895                             1_GWF-(1,12,9)
 Model                              3          8      0.34805730                             1_GWF-(3,19,9)
 Model                              4          8      0.22798566                             1_GWF-(3,19,9)
 Model                              5          8  9.92447155E-02                             1_GWF-(3,19,9)
 Model                              6          8  3.68496922E-02                             1_GWF-(3,19,9)
 Model                              7          7  1.26135548E-02                             1_GWF-(3,19,9)
 Model                              8          7  4.11371507E-03                             1_GWF-(3,19,9)
 Model                              9          7  1.29953882E-03                             1_GWF-(3,19,9)
 Model                             10          6  4.01377304E-04                             1_GWF-(3,19,9)
 Model                             11          6  1.21908846E-04                             1_GWF-(3,19,9)
 Model                             12          5  3.65513660E-05                             1_GWF-(3,19,9)
 Model                             13          5  1.08473573E-05                             1_GWF-(3,19,9)
 Model                             14          4  3.19259942E-06                             1_GWF-(3,19,9)
 Model                             15          4  9.33259813E-07                             1_GWF-(3,19,9)
 Model                             16          3  2.71261186E-07                             1_GWF-(3,19,9)
 Model                             17          3  7.84651633E-08                             1_GWF-(3,19,9)
 Model                             18          2  2.26067982E-08                             1_GWF-(3,19,9)
 Model                             19          2  6.48785203E-09                             1_GWF-(3,19,9)
 Model                             20          2  1.85826821E-09                             1_GWF-(3,19,8)
 Model                             21          1  5.30860689E-10       *                     1_GWF-(3,18,9)
 Package                           21            -5.36534904E-06                    1_GWF-SFR-1-(17)-inflow
 Model                             22          1  1.51430868E-10       *                    1_GWF-(3,19,10)
 Package                           22            -1.53119181E-06                    1_GWF-SFR-1-(17)-inflow
 Model                             23          1  4.37125891E-11       *                    1_GWF-(4,19,10)
 Package                           23            -4.36444880E-07                    1_GWF-SFR-1-(17)-inflow
 Model                             24          1  1.32445166E-11       *                      1_GWF-(4,5,5)
 Package                           24            -1.24555237E-07                    1_GWF-SFR-1-(17)-inflow
 Model                             25          1  1.32160949E-11       *                    1_GWF-(3,25,12)
 Package                           25            -3.54107987E-08                    1_GWF-SFR-1-(17)-inflow
 Model                             26          1  1.19371180E-11       *                    1_GWF-(4,11,15)
 Package                           26            -9.79647930E-09                    1_GWF-SFR-1-(17)-inflow
 Model                             27          1  1.11413101E-11       *                    1_GWF-(5,25,14)
 Package                           27            -2.72632154E-09                    1_GWF-SFR-1-(17)-inflow
 Model                             28          1 -1.41824330E-11       *                     1_GWF-(3,14,2)
 Package                           28            -6.81029836E-10       *            1_GWF-SFR-1-(17)-inflow
 ----------------------------------------------------------------------------------------------------------


 28 CALLS TO NUMERICAL SOLUTION IN TIME STEP 200 STRESS PERIOD 1
 123 TOTAL ITERATIONS

 MEMORY MANAGER TOTAL STORAGE BY DATA TYPE, IN MEGABYTES
 -------------------------------
                    ALLOCATED   
 DATA TYPE           MEMORY     
 -------------------------------
 Character        1.19390000E-02
 Logical          4.80000000E-05
 Integer          0.61598400    
 Real             1.3829600     
 -------------------------------
 Total            2.0109310     
 Virtual          0.0000000     
 -------------------------------


 
 Run end date and time (yyyy/mm/dd hh:mm:ss): 2025/05/05  6:09:36
 Elapsed run time:  8.151 Seconds
 Normal termination of simulation.
