                                  MODFLOW-2005     
      U.S. GEOLOGICAL SURVEY MODULAR FINITE-DIFFERENCE GROUND-WATER FLOW MODEL
                            VERSION 1.12.00 2/3/2017

 LIST FILE: ex01_mf2005.list
                         UNIT    2

 OPENING ex01_mf2005.dis
 FILE TYPE:DIS   UNIT   11   STATUS:OLD    
 FORMAT:FORMATTED              ACCESS:SEQUENTIAL          

 OPENING ex01_mf2005.lpf
 FILE TYPE:LPF   UNIT   15   STATUS:OLD    
 FORMAT:FORMATTED              ACCESS:SEQUENTIAL          

 OPENING ex01_mf2005.bas
 FILE TYPE:BAS6   UNIT   13   STATUS:OLD    
 FORMAT:FORMATTED              ACCESS:SEQUENTIAL          

 OPENING ex01_mf2005.rch
 FILE TYPE:RCH   UNIT   19   STATUS:OLD    
 FORMAT:FORMATTED              ACCESS:SEQUENTIAL          

 OPENING ex01_mf2005.wel
 FILE TYPE:WEL   UNIT   20   STATUS:OLD    
 FORMAT:FORMATTED              ACCESS:SEQUENTIAL          

 OPENING ex01_mf2005.riv
 FILE TYPE:RIV   UNIT   18   STATUS:OLD    
 FORMAT:FORMATTED              ACCESS:SEQUENTIAL          

 OPENING ex01_mf2005.oc
 FILE TYPE:OC   UNIT   14   STATUS:OLD    
 FORMAT:FORMATTED              ACCESS:SEQUENTIAL          

 OPENING ex01_mf2005.pcg
 FILE TYPE:PCG   UNIT   27   STATUS:OLD    
 FORMAT:FORMATTED              ACCESS:SEQUENTIAL          

 OPENING ex01_mf2005.cbc
 FILE TYPE:DATA(BINARY)   UNIT  130   STATUS:REPLACE
 FORMAT:UNFORMATTED            ACCESS:STREAM              

 OPENING ex01_mf2005.hds
 FILE TYPE:DATA(BINARY)   UNIT   51   STATUS:REPLACE
 FORMAT:UNFORMATTED            ACCESS:STREAM              

 BAS -- BASIC PACKAGE, VERSION 7, 5/2/2005 INPUT READ FROM UNIT   13
 
 MODFLOW was compiled using mixed precision
 Precision of REAL variables:           6
 Precision of DOUBLE PRECISION variables:          15

 DISCRETIZATION INPUT DATA READ FROM UNIT   11
 # DIS package for MODFLOW-2005 generated by Flopy 3.9.1
    3 LAYERS        21 ROWS        20 COLUMNS
    1 STRESS PERIOD(S) IN SIMULATION
 MODEL TIME UNIT IS DAYS
 MODEL LENGTH UNIT IS METERS
  Confining bed flag for each layer:
   0   0   0

                     DELR =   500.000    

                     DELC =   500.000    

 TOP ELEVATION OF LAYER 1 =   400.000    

   MODEL LAYER BOTTOM EL. =   220.000     FOR LAYER   1

   MODEL LAYER BOTTOM EL. =   200.000     FOR LAYER   2

   MODEL LAYER BOTTOM EL. =   0.00000     FOR LAYER   3


 STRESS PERIOD     LENGTH       TIME STEPS     MULTIPLIER FOR DELT    SS FLAG
 ----------------------------------------------------------------------------
        1         1.000000          1                    1.000         SS

 STEADY-STATE SIMULATION



 
 # BAS6 package for MODFLOW-2005 generated by Flopy 3.9.1                        
 THE FREE FORMAT OPTION HAS BEEN SELECTED

           BOUNDARY ARRAY =              1 FOR LAYER   1

           BOUNDARY ARRAY =              1 FOR LAYER   2

           BOUNDARY ARRAY =              1 FOR LAYER   3

 AQUIFER HEAD WILL BE SET TO  -999.99     AT ALL NO-FLOW NODES (IBOUND=0).

             INITIAL HEAD =   400.000     FOR LAYER   1

             INITIAL HEAD =   400.000     FOR LAYER   2

             INITIAL HEAD =   400.000     FOR LAYER   3
 # OC package for MODFLOW-2005 generated by Flopy 3.9.1

 OUTPUT CONTROL IS SPECIFIED ONLY AT TIME STEPS FOR WHICH OUTPUT IS DESIRED
 COMPACT CELL-BY-CELL BUDGET FILES WILL BE WRITTEN
 AUXILIARY DATA WILL BE SAVED IN CELL-BY-CELL BUDGET FILES
 HEAD PRINT FORMAT CODE IS   0    DRAWDOWN PRINT FORMAT CODE IS   0
 HEADS WILL BE SAVED ON UNIT   51    DRAWDOWNS WILL BE SAVED ON UNIT    0

 LPF -- LAYER-PROPERTY FLOW PACKAGE, VERSION 7, 5/2/2005
         INPUT READ FROM UNIT   15
 # LPF package for MODFLOW-2005 generated by Flopy 3.9.1
 CELL-BY-CELL FLOWS WILL BE SAVED ON UNIT  130
 HEAD AT CELLS THAT CONVERT TO DRY= -1.00000E+30
 No named parameters
 CONSTANTCV OPTION:
 Constant vertical conductance for convertible layers

   LAYER FLAGS:
 LAYER       LAYTYP        LAYAVG         CHANI        LAYVKA        LAYWET
 ---------------------------------------------------------------------------
    1             1             0     1.000E+00             0             0
    2             0             0     1.000E+00             0             0
    3             0             0     1.000E+00             0             0

   INTERPRETATION OF LAYER FLAGS:
                        INTERBLOCK     HORIZONTAL    DATA IN
         LAYER TYPE   TRANSMISSIVITY   ANISOTROPY   ARRAY VKA   WETTABILITY
 LAYER      (LAYTYP)      (LAYAVG)       (CHANI)      (LAYVKA)      (LAYWET)
 ---------------------------------------------------------------------------
    1   CONVERTIBLE      HARMONIC     1.000E+00    VERTICAL K  NON-WETTABLE
    2      CONFINED      HARMONIC     1.000E+00    VERTICAL K  NON-WETTABLE
    3      CONFINED      HARMONIC     1.000E+00    VERTICAL K  NON-WETTABLE

 WETTING CAPABILITY IS NOT ACTIVE IN ANY LAYER

    HYD. COND. ALONG ROWS =   50.0000     FOR LAYER   1

      VERTICAL HYD. COND. =   10.0000     FOR LAYER   1

    HYD. COND. ALONG ROWS =  1.000000E-02 FOR LAYER   2

      VERTICAL HYD. COND. =  1.000000E-02 FOR LAYER   2

    HYD. COND. ALONG ROWS =   200.000     FOR LAYER   3

      VERTICAL HYD. COND. =   20.0000     FOR LAYER   3

 WEL -- WELL PACKAGE, VERSION 7, 5/2/2005 INPUT READ FROM UNIT   20
 # WEL package for MODFLOW-2005 generated by Flopy 3.9.1
 No named parameters
 MAXIMUM OF      1 ACTIVE WELLS AT ONE TIME
 CELL-BY-CELL FLOWS WILL BE SAVED ON UNIT  130


     0 Well parameters

 RIV -- RIVER PACKAGE, VERSION 7, 5/2/2005 INPUT READ FROM UNIT   18
 # RIV package for MODFLOW-2005 generated by Flopy 3.9.1
 No named parameters
 MAXIMUM OF     21 ACTIVE RIVER REACHES AT ONE TIME
 CELL-BY-CELL FLOWS WILL BE SAVED ON UNIT  130


     0 River parameters

 RCH -- RECHARGE PACKAGE, VERSION 7, 5/2/2005 INPUT READ FROM UNIT   19
 # RCH package for MODFLOW-2005 generated by Flopy 3.9.1
 No named parameters
 OPTION 3 -- RECHARGE TO HIGHEST ACTIVE NODE IN EACH VERTICAL COLUMN
 CELL-BY-CELL FLOWS WILL BE SAVED ON UNIT  130


     0 Recharge parameters

 PCG -- CONJUGATE-GRADIENT SOLUTION PACKAGE, VERSION 7, 5/2/2005
 # PCG package for MODFLOW-2005 generated by Flopy 3.9.1
 MAXIMUM OF     50 CALLS OF SOLUTION ROUTINE
 MAXIMUM OF     30 INTERNAL ITERATIONS PER CALL TO SOLUTION ROUTINE
 MATRIX PRECONDITIONING TYPE :    1



                                    SOLUTION BY THE CONJUGATE-GRADIENT METHOD
                                   -------------------------------------------
                    MAXIMUM NUMBER OF CALLS TO PCG ROUTINE =       50
                        MAXIMUM ITERATIONS PER CALL TO PCG =       30
                               MATRIX PRECONDITIONING TYPE =        1
        RELAXATION FACTOR (ONLY USED WITH PRECOND. TYPE 1) =    0.10000E+01
 PARAMETER OF POLYNOMIAL PRECOND. = 2 (2) OR IS CALCULATED :        0
                         HEAD CHANGE CRITERION FOR CLOSURE =    0.10000E-05
                     RESIDUAL CHANGE CRITERION FOR CLOSURE =    0.10000E-05
            PCG HEAD AND RESIDUAL CHANGE PRINTOUT INTERVAL =      999
     PRINTING FROM SOLVER IS LIMITED(1) OR SUPPRESSED (>1) =        3
                            STEADY-STATE DAMPING PARAMETER =    0.10000E+01
                               TRANSIENT DAMPING PARAMETER =    0.10000E+01
1
                            STRESS PERIOD NO.    1, LENGTH =   1.000000    
                            -----------------------------------------------

                              NUMBER OF TIME STEPS =     1

                               MULTIPLIER FOR DELT =     1.000

                            INITIAL TIME STEP SIZE =   1.000000    

 WELL NO.  LAYER   ROW   COL   STRESS RATE         
 --------------------------------------------------
      1      3     11     10     -0.1500E+06

      1 WELL 

 REACH NO.  LAYER   ROW   COL     STAGE      CONDUCTANCE     BOTTOM EL.         
 -------------------------------------------------------------------------------
      1      1      1     20       320.0          0.1000E+06       317.0    
      2      1      2     20       320.0          0.1000E+06       317.0    
      3      1      3     20       320.0          0.1000E+06       317.0    
      4      1      4     20       320.0          0.1000E+06       317.0    
      5      1      5     20       320.0          0.1000E+06       317.0    
      6      1      6     20       320.0          0.1000E+06       317.0    
      7      1      7     20       320.0          0.1000E+06       317.0    
      8      1      8     20       320.0          0.1000E+06       317.0    
      9      1      9     20       320.0          0.1000E+06       317.0    
     10      1     10     20       320.0          0.1000E+06       317.0    
     11      1     11     20       320.0          0.1000E+06       317.0    
     12      1     12     20       320.0          0.1000E+06       317.0    
     13      1     13     20       320.0          0.1000E+06       317.0    
     14      1     14     20       320.0          0.1000E+06       317.0    
     15      1     15     20       320.0          0.1000E+06       317.0    
     16      1     16     20       320.0          0.1000E+06       317.0    
     17      1     17     20       320.0          0.1000E+06       317.0    
     18      1     18     20       320.0          0.1000E+06       317.0    
     19      1     19     20       320.0          0.1000E+06       317.0    
     20      1     20     20       320.0          0.1000E+06       317.0    
     21      1     21     20       320.0          0.1000E+06       317.0    

     21 RIVER REACHES

                 RECHARGE =  5.000000E-03
 
 SOLVING FOR HEAD 

 OUTPUT CONTROL FOR STRESS PERIOD    1   TIME STEP    1
    SAVE HEAD FOR ALL LAYERS
    SAVE BUDGET
    PRINT HEAD FOR ALL LAYERS
 UBDSV2 SAVING "   CONSTANT HEAD" ON UNIT 130 AT TIME STEP  1, STRESS PERIOD   1
 UBDSV1 SAVING "FLOW RIGHT FACE " ON UNIT 130 AT TIME STEP  1, STRESS PERIOD   1
 UBDSV1 SAVING "FLOW FRONT FACE " ON UNIT 130 AT TIME STEP  1, STRESS PERIOD   1
 UBDSV1 SAVING "FLOW LOWER FACE " ON UNIT 130 AT TIME STEP  1, STRESS PERIOD   1
 UBDSV4 SAVING "           WELLS" ON UNIT 130 AT TIME STEP  1, STRESS PERIOD   1
 UBDSV4 SAVING "   RIVER LEAKAGE" ON UNIT 130 AT TIME STEP  1, STRESS PERIOD   1
 UBDSV3 SAVING "        RECHARGE" ON UNIT 130 AT TIME STEP  1, STRESS PERIOD   1
1
              HEAD IN LAYER   1 AT END OF TIME STEP   1 IN STRESS PERIOD    1
  ---------------------------------------------------------------------------

            1           2           3           4           5           6           7           8           9          10
           11          12          13          14          15          16          17          18          19          20
 ........................................................................................................................
   1    339.1       339.0       338.9       338.8       338.5       338.2       337.9       337.4       336.9       336.3    
        335.6       334.7       333.8       332.6       331.3       329.7       327.9       325.8       323.2       320.2    
   2    339.1       339.0       338.9       338.8       338.5       338.2       337.9       337.4       336.9       336.3    
        335.6       334.7       333.8       332.6       331.3       329.7       327.9       325.8       323.2       320.2    
   3    339.1       339.0       338.9       338.7       338.5       338.2       337.9       337.4       336.9       336.3    
        335.6       334.7       333.7       332.6       331.3       329.7       327.9       325.7       323.2       320.2    
   4    339.1       339.0       338.9       338.7       338.5       338.2       337.8       337.4       336.9       336.3    
        335.6       334.7       333.7       332.6       331.3       329.7       327.9       325.7       323.2       320.2    
   5    339.1       339.0       338.9       338.7       338.5       338.2       337.8       337.4       336.9       336.3    
        335.5       334.7       333.7       332.6       331.3       329.7       327.9       325.7       323.2       320.2    
   6    339.1       339.0       338.9       338.7       338.5       338.2       337.8       337.4       336.9       336.2    
        335.5       334.7       333.7       332.6       331.3       329.7       327.9       325.7       323.2       320.2    
   7    339.1       339.0       338.9       338.7       338.5       338.2       337.8       337.4       336.8       336.2    
        335.5       334.7       333.7       332.6       331.2       329.7       327.9       325.7       323.2       320.2    
   8    339.1       339.0       338.9       338.7       338.5       338.2       337.8       337.3       336.8       336.2    
        335.5       334.7       333.7       332.6       331.2       329.7       327.9       325.7       323.2       320.2    
   9    339.0       339.0       338.9       338.7       338.5       338.2       337.8       337.3       336.8       336.2    
        335.5       334.6       333.7       332.5       331.2       329.7       327.9       325.7       323.2       320.2    
  10    339.0       339.0       338.9       338.7       338.5       338.1       337.8       337.3       336.8       336.2    
        335.5       334.6       333.7       332.5       331.2       329.7       327.9       325.7       323.2       320.2    
  11    339.0       339.0       338.9       338.7       338.5       338.1       337.8       337.3       336.8       336.2    
        335.4       334.6       333.7       332.5       331.2       329.7       327.9       325.7       323.2       320.2    
  12    339.0       339.0       338.9       338.7       338.5       338.1       337.8       337.3       336.8       336.2    
        335.5       334.6       333.7       332.5       331.2       329.7       327.9       325.7       323.2       320.2    
  13    339.0       339.0       338.9       338.7       338.5       338.2       337.8       337.3       336.8       336.2    
        335.5       334.6       333.7       332.5       331.2       329.7       327.9       325.7       323.2       320.2    
  14    339.1       339.0       338.9       338.7       338.5       338.2       337.8       337.3       336.8       336.2    
        335.5       334.7       333.7       332.6       331.2       329.7       327.9       325.7       323.2       320.2    
  15    339.1       339.0       338.9       338.7       338.5       338.2       337.8       337.4       336.8       336.2    
        335.5       334.7       333.7       332.6       331.2       329.7       327.9       325.7       323.2       320.2    
  16    339.1       339.0       338.9       338.7       338.5       338.2       337.8       337.4       336.9       336.2    
        335.5       334.7       333.7       332.6       331.3       329.7       327.9       325.7       323.2       320.2    
  17    339.1       339.0       338.9       338.7       338.5       338.2       337.8       337.4       336.9       336.3    
        335.5       334.7       333.7       332.6       331.3       329.7       327.9       325.7       323.2       320.2    
  18    339.1       339.0       338.9       338.7       338.5       338.2       337.8       337.4       336.9       336.3    
        335.6       334.7       333.7       332.6       331.3       329.7       327.9       325.7       323.2       320.2    
  19    339.1       339.0       338.9       338.7       338.5       338.2       337.9       337.4       336.9       336.3    
        335.6       334.7       333.7       332.6       331.3       329.7       327.9       325.7       323.2       320.2    
  20    339.1       339.0       338.9       338.8       338.5       338.2       337.9       337.4       336.9       336.3    
        335.6       334.7       333.8       332.6       331.3       329.7       327.9       325.8       323.2       320.2    
  21    339.1       339.0       338.9       338.8       338.5       338.2       337.9       337.4       336.9       336.3    
        335.6       334.7       333.8       332.6       331.3       329.7       327.9       325.8       323.2       320.2    
1
              HEAD IN LAYER   2 AT END OF TIME STEP   1 IN STRESS PERIOD    1
  ---------------------------------------------------------------------------

            1           2           3           4           5           6           7           8           9          10
           11          12          13          14          15          16          17          18          19          20
 ........................................................................................................................
   1    335.4       335.4       335.3       335.2       335.1       334.9       334.6       334.4       334.1       333.7    
        333.3       332.8       332.3       331.6       330.9       330.1       329.1       328.0       326.7       325.2    
   2    335.4       335.4       335.3       335.2       335.1       334.9       334.6       334.4       334.1       333.7    
        333.3       332.8       332.3       331.6       330.9       330.1       329.1       328.0       326.7       325.2    
   3    335.4       335.4       335.3       335.2       335.0       334.9       334.6       334.4       334.0       333.7    
        333.3       332.8       332.2       331.6       330.9       330.1       329.1       328.0       326.7       325.2    
   4    335.4       335.4       335.3       335.2       335.0       334.8       334.6       334.3       334.0       333.7    
        333.2       332.8       332.2       331.6       330.9       330.1       329.1       328.0       326.7       325.2    
   5    335.4       335.4       335.3       335.2       335.0       334.8       334.6       334.3       334.0       333.6    
        333.2       332.7       332.2       331.6       330.9       330.1       329.1       328.0       326.7       325.2    
   6    335.4       335.3       335.3       335.1       335.0       334.8       334.5       334.3       333.9       333.6    
        333.2       332.7       332.2       331.6       330.9       330.0       329.1       328.0       326.7       325.2    
   7    335.4       335.3       335.2       335.1       335.0       334.7       334.5       334.2       333.9       333.5    
        333.1       332.6       332.1       331.5       330.8       330.0       329.1       328.0       326.7       325.2    
   8    335.4       335.3       335.2       335.1       334.9       334.7       334.4       334.1       333.8       333.4    
        333.0       332.6       332.1       331.5       330.8       330.0       329.1       328.0       326.7       325.2    
   9    335.3       335.3       335.2       335.1       334.9       334.7       334.4       334.1       333.7       333.3    
        332.9       332.5       332.0       331.5       330.8       330.0       329.1       328.0       326.7       325.2    
  10    335.3       335.3       335.2       335.1       334.9       334.7       334.4       334.0       333.6       333.1    
        332.8       332.4       332.0       331.4       330.8       330.0       329.0       328.0       326.7       325.1    
  11    335.3       335.3       335.2       335.1       334.9       334.6       334.3       334.0       333.4       332.6    
        332.7       332.4       332.0       331.4       330.8       330.0       329.0       327.9       326.7       325.1    
  12    335.3       335.3       335.2       335.1       334.9       334.7       334.4       334.0       333.6       333.1    
        332.8       332.4       332.0       331.4       330.8       330.0       329.0       328.0       326.7       325.1    
  13    335.3       335.3       335.2       335.1       334.9       334.7       334.4       334.1       333.7       333.3    
        332.9       332.5       332.0       331.5       330.8       330.0       329.1       328.0       326.7       325.2    
  14    335.4       335.3       335.2       335.1       334.9       334.7       334.4       334.1       333.8       333.4    
        333.0       332.6       332.1       331.5       330.8       330.0       329.1       328.0       326.7       325.2    
  15    335.4       335.3       335.2       335.1       335.0       334.7       334.5       334.2       333.9       333.5    
        333.1       332.6       332.1       331.5       330.8       330.0       329.1       328.0       326.7       325.2    
  16    335.4       335.3       335.3       335.1       335.0       334.8       334.5       334.3       333.9       333.6    
        333.2       332.7       332.2       331.6       330.9       330.0       329.1       328.0       326.7       325.2    
  17    335.4       335.4       335.3       335.2       335.0       334.8       334.6       334.3       334.0       333.6    
        333.2       332.7       332.2       331.6       330.9       330.1       329.1       328.0       326.7       325.2    
  18    335.4       335.4       335.3       335.2       335.0       334.8       334.6       334.3       334.0       333.7    
        333.2       332.8       332.2       331.6       330.9       330.1       329.1       328.0       326.7       325.2    
  19    335.4       335.4       335.3       335.2       335.0       334.9       334.6       334.4       334.0       333.7    
        333.3       332.8       332.2       331.6       330.9       330.1       329.1       328.0       326.7       325.2    
  20    335.4       335.4       335.3       335.2       335.1       334.9       334.6       334.4       334.1       333.7    
        333.3       332.8       332.3       331.6       330.9       330.1       329.1       328.0       326.7       325.2    
  21    335.4       335.4       335.3       335.2       335.1       334.9       334.6       334.4       334.1       333.7    
        333.3       332.8       332.3       331.6       330.9       330.1       329.1       328.0       326.7       325.2    
1
              HEAD IN LAYER   3 AT END OF TIME STEP   1 IN STRESS PERIOD    1
  ---------------------------------------------------------------------------

            1           2           3           4           5           6           7           8           9          10
           11          12          13          14          15          16          17          18          19          20
 ........................................................................................................................
   1    331.8       331.8       331.7       331.7       331.6       331.5       331.4       331.3       331.2       331.1    
        331.0       330.9       330.8       330.7       330.6       330.5       330.4       330.3       330.2       330.2    
   2    331.8       331.8       331.7       331.7       331.6       331.5       331.4       331.3       331.2       331.1    
        331.0       330.9       330.8       330.7       330.6       330.5       330.4       330.3       330.2       330.2    
   3    331.8       331.7       331.7       331.7       331.6       331.5       331.4       331.3       331.2       331.1    
        331.0       330.9       330.8       330.6       330.5       330.4       330.4       330.3       330.2       330.2    
   4    331.7       331.7       331.7       331.6       331.6       331.5       331.4       331.3       331.2       331.0    
        330.9       330.8       330.7       330.6       330.5       330.4       330.3       330.3       330.2       330.2    
   5    331.7       331.7       331.7       331.6       331.5       331.4       331.3       331.2       331.1       331.0    
        330.9       330.8       330.7       330.6       330.5       330.4       330.3       330.2       330.2       330.2    
   6    331.7       331.7       331.6       331.6       331.5       331.4       331.3       331.1       331.0       330.9    
        330.8       330.7       330.6       330.5       330.5       330.4       330.3       330.2       330.2       330.1    
   7    331.7       331.7       331.6       331.5       331.4       331.3       331.2       331.1       330.9       330.8    
        330.7       330.6       330.5       330.5       330.4       330.3       330.3       330.2       330.2       330.1    
   8    331.7       331.6       331.6       331.5       331.4       331.3       331.1       330.9       330.8       330.6    
        330.6       330.5       330.5       330.4       330.4       330.3       330.3       330.2       330.1       330.1    
   9    331.7       331.6       331.6       331.5       331.4       331.2       331.0       330.8       330.6       330.4    
        330.4       330.4       330.4       330.4       330.3       330.3       330.2       330.2       330.1       330.1    
  10    331.6       331.6       331.6       331.5       331.3       331.2       331.0       330.7       330.3       330.0    
        330.1       330.2       330.3       330.3       330.3       330.3       330.2       330.2       330.1       330.1    
  11    331.6       331.6       331.6       331.5       331.3       331.2       330.9       330.6       330.1       329.0    
        329.9       330.2       330.3       330.3       330.3       330.3       330.2       330.2       330.1       330.1    
  12    331.6       331.6       331.6       331.5       331.3       331.2       331.0       330.7       330.3       330.0    
        330.1       330.2       330.3       330.3       330.3       330.3       330.2       330.2       330.1       330.1    
  13    331.7       331.6       331.6       331.5       331.4       331.2       331.0       330.8       330.6       330.4    
        330.4       330.4       330.4       330.4       330.3       330.3       330.2       330.2       330.1       330.1    
  14    331.7       331.6       331.6       331.5       331.4       331.3       331.1       330.9       330.8       330.6    
        330.6       330.5       330.5       330.4       330.4       330.3       330.3       330.2       330.1       330.1    
  15    331.7       331.7       331.6       331.5       331.4       331.3       331.2       331.1       330.9       330.8    
        330.7       330.6       330.5       330.5       330.4       330.3       330.3       330.2       330.2       330.1    
  16    331.7       331.7       331.6       331.6       331.5       331.4       331.3       331.1       331.0       330.9    
        330.8       330.7       330.6       330.5       330.5       330.4       330.3       330.2       330.2       330.1    
  17    331.7       331.7       331.7       331.6       331.5       331.4       331.3       331.2       331.1       331.0    
        330.9       330.8       330.7       330.6       330.5       330.4       330.3       330.2       330.2       330.2    
  18    331.7       331.7       331.7       331.6       331.6       331.5       331.4       331.3       331.2       331.0    
        330.9       330.8       330.7       330.6       330.5       330.4       330.3       330.3       330.2       330.2    
  19    331.8       331.7       331.7       331.7       331.6       331.5       331.4       331.3       331.2       331.1    
        331.0       330.9       330.8       330.6       330.5       330.4       330.4       330.3       330.2       330.2    
  20    331.8       331.8       331.7       331.7       331.6       331.5       331.4       331.3       331.2       331.1    
        331.0       330.9       330.8       330.7       330.6       330.5       330.4       330.3       330.2       330.2    
  21    331.8       331.8       331.7       331.7       331.6       331.5       331.4       331.3       331.2       331.1    
        331.0       330.9       330.8       330.7       330.6       330.5       330.4       330.3       330.2       330.2    

 HEAD WILL BE SAVED ON UNIT   51 AT END OF TIME STEP    1, STRESS PERIOD    1
1
  VOLUMETRIC BUDGET FOR ENTIRE MODEL AT END OF TIME STEP    1, STRESS PERIOD   1
  ------------------------------------------------------------------------------

     CUMULATIVE VOLUMES      L**3       RATES FOR THIS TIME STEP      L**3/T
     ------------------                 ------------------------

           IN:                                      IN:
           ---                                      ---
             STORAGE =           0.0000               STORAGE =           0.0000
       CONSTANT HEAD =           0.0000         CONSTANT HEAD =           0.0000
               WELLS =           0.0000                 WELLS =           0.0000
       RIVER LEAKAGE =           0.0000         RIVER LEAKAGE =           0.0000
            RECHARGE =      525000.0000              RECHARGE =      525000.0000

            TOTAL IN =      525000.0000              TOTAL IN =      525000.0000

          OUT:                                     OUT:
          ----                                     ----
             STORAGE =           0.0000               STORAGE =           0.0000
       CONSTANT HEAD =           0.0000         CONSTANT HEAD =           0.0000
               WELLS =      150000.0000                 WELLS =      150000.0000
       RIVER LEAKAGE =      375000.0000         RIVER LEAKAGE =      375000.0000
            RECHARGE =           0.0000              RECHARGE =           0.0000

           TOTAL OUT =      525000.0000             TOTAL OUT =      525000.0000

            IN - OUT =           0.0000              IN - OUT =           0.0000

 PERCENT DISCREPANCY =           0.00     PERCENT DISCREPANCY =           0.00






         TIME SUMMARY AT END OF TIME STEP    1 IN STRESS PERIOD    1
                    SECONDS     MINUTES      HOURS       DAYS        YEARS
                    -----------------------------------------------------------
   TIME STEP LENGTH  86400.      1440.0      24.000      1.0000     2.73785E-03
 STRESS PERIOD TIME  86400.      1440.0      24.000      1.0000     2.73785E-03
         TOTAL TIME  86400.      1440.0      24.000      1.0000     2.73785E-03
1

 Run end date and time (yyyy/mm/dd hh:mm:ss): 2025/05/15 15:26:26
 Elapsed run time:  0.027 Seconds

