                                   MODFLOW 6
                U.S. GEOLOGICAL SURVEY MODULAR HYDROLOGIC MODEL
                          GROUNDWATER FLOW MODEL (GWF)
                            VERSION 6.6.1 02/10/2025

   MODFLOW 6 compiled Feb 14 2025 13:40:10 with Intel(R) Fortran Intel(R) 64
   Compiler Classic for applications running on Intel(R) 64, Version 2021.7.0
                             Build 20220726_000000

This software has been approved for release by the U.S. Geological 
Survey (USGS). Although the software has been subjected to rigorous 
review, the USGS reserves the right to update the software as needed 
pursuant to further analysis and review. No warranty, expressed or 
implied, is made by the USGS or the U.S. Government as to the 
functionality of the software and related material nor shall the 
fact of release constitute any such warranty. Furthermore, the 
software is released on condition that neither the USGS nor the U.S. 
Government shall be held liable for any damages resulting from its 
authorized or unauthorized use. Also refer to the USGS Water 
Resources Software User Rights Notice for complete use, copyright, 
and distribution information.


As a work of the United States Government, this USGS product is 
in the public domain within the United States. You can copy, 
modify, distribute, and perform the work, even for commercial 
purposes, all without asking permission. Additionally, USGS 
waives copyright and related rights in the work worldwide 
through CC0 1.0 Universal Public Domain Dedication 
(https://creativecommons.org/publicdomain/zero/1.0/).

The following GNU Lesser General Public License (LGPL) libraries
are used in this USGS product:

    SPARSKIT version 2.0
      ilut, luson, and qsplit 
      (https://www-users.cse.umn.edu/~saad/software/SPARSKIT/)

    RCM - Reverse Cuthill McKee Ordering
      (https://people.math.sc.edu/Burkardt/f_src/rcm/rcm.html)

    BLAS - Basic Linear Algebra Subprograms Level 1
      (https://people.math.sc.edu/Burkardt/f_src/blas1_d/blas1_d.html)

    SPARSEKIT - Sparse Matrix Utility Package
      amux, dperm, dvperm, rperm, and cperm
      (https://people.sc.fsu.edu/~jburkardt/f77_src/sparsekit/sparsekit.html)

The following BSD-3 License libraries are used in this USGS product:

    Modern Fortran DAG Library
      Copyright (c) 2018, Jacob Williams
      All rights reserved.
      (https://github.com/jacobwilliams/daglib)

MODFLOW 6 compiler options: /O2 /heap-arrays:0 /fpe:0 /traceback /nologo /fpp
/c /module:win64\mod_mf6\ /object:win64\obj_mf6\

System command used to initiate simulation:
C:\Users\gross.DESKTOP-AIRQM2M\anaconda3\Scripts\mf6.exe

MODFLOW was compiled using uniform precision.

Real Variables
  KIND: 8
  TINY (smallest non-zero value):    2.225074-308
  HUGE (largest value):    1.797693+308
  PRECISION: 15
  SIZE IN BITS: 64

Integer Variables
  KIND: 4
  HUGE (largest value): 2147483647
  SIZE IN BITS: 32

Long Integer Variables
  KIND: 8
  HUGE (largest value): 9223372036854775807
  SIZE IN BITS: 64

Logical Variables
  KIND: 4
  SIZE IN BITS: 32
 
 NAMEFILE OPTIONS:
    FLOWS WILL BE SAVED TO BUDGET FILE SPECIFIED IN OUTPUT CONTROL
 END NAMEFILE OPTIONS:

 DIS -- STRUCTURED GRID DISCRETIZATION PACKAGE, VERSION 2 : 3/27/2014 - INPUT READ FROM MEMPATH: __INPUT__/TRACK_WHIRL/DIS                         


 NPF -- NODE PROPERTY FLOW PACKAGE, VERSION 1, 3/30/2015 INPUT READ FROM MEMPATH: __INPUT__/TRACK_WHIRL/NPF                         


 IC -- Initial Conditions Package, Version 8, 3/28/2015 input read from mempath: __INPUT__/TRACK_WHIRL/IC                          


 Setting Discretization Options
    Model length unit [0=UND, 1=FEET, 2=METERS, 3=CENTIMETERS] set as 2
 End Setting Discretization Options

 Setting Discretization Dimensions
    NLAY = 10
    NROW = 12
    NCOL = 51
 End Setting Discretization Dimensions

 Setting Discretization Griddata
    DELR set from input file
    DELC set from input file
    TOP set from input file
    BOTM set from input file
 End Setting Discretization Griddata

 Setting NPF Options
    XT3D formulation is selected.
    Specific discharge will be calculated at cell centers and written to DATA-SPDIS in budget file when requested.
 End Setting NPF Options

 Setting NPF Griddata
    ICELLTYPE set from input file
    K set from input file
    K33 set from input file
    K22 set from input file
    ANGLE1 set from input file
 End Setting NPF Griddata


 WEL   -- WEL PACKAGE, VERSION 8, 2/22/2014 INPUT READ FROM MEMPATH: __INPUT__/TRACK_WHIRL/WEL                         

 PROCESSING WEL BASE OPTIONS
 END OF WEL BASE OPTIONS

 PROCESSING WEL OPTIONS
 END OF WEL OPTIONS

 PROCESSING WEL BASE DIMENSIONS
    MAXBOUND =     240
 END OF WEL BASE DIMENSIONS
    STRT set from input file

 XT3D is active.


    BINARY GRID INFORMATION WILL BE WRITTEN TO:
      UNIT NUMBER: 1011
      FILE NAME: track_whirl.dis.grb

 OPENED track_whirl.dis.grb
 FILE TYPE:DATA(BINARY)   UNIT 1011   STATUS:REPLACE             
 FORMAT:UNFORMATTED            ACCESS:STREAM              
 ACTION:READWRITE           

      THE LAST TIME STEP WILL BE PRINTED
      THE LAST TIME STEP WILL BE PRINTED
 # File generated by Flopy version 3.9.1 on 05/18/2025 at 14:58:19.

 PROCESSING OC OPTIONS

    BUDGET INFORMATION WILL BE WRITTEN TO:
      UNIT NUMBER: 1012
      FILE NAME: track_whirl.cbc

 OPENED track_whirl.cbc
 FILE TYPE:DATA(BINARY)   UNIT 1012   STATUS:REPLACE             
 FORMAT:UNFORMATTED            ACCESS:STREAM              
 ACTION:READWRITE           

    HEAD INFORMATION WILL BE WRITTEN TO:
      UNIT NUMBER: 1013
      FILE NAME: track_whirl.hds

 OPENED track_whirl.hds
 FILE TYPE:DATA(BINARY)   UNIT 1013   STATUS:REPLACE             
 FORMAT:UNFORMATTED            ACCESS:STREAM              
 ACTION:READWRITE           

 END OF OC OPTIONS

start timestep kper="1" kstp="1" mode="normal"


 BEGIN READING OUTPUT CONTROL FOR STRESS PERIOD 1
      ALL TIME STEPS WILL BE SAVED
      ALL TIME STEPS WILL BE SAVED
      ALL TIME STEPS WILL BE PRINTED
      ALL TIME STEPS WILL BE PRINTED

 END READING OUTPUT CONTROL FOR STRESS PERIOD 1
 UBDSV1 SAVING     FLOW-JA-FACE ON UNIT   1012 AT TIME STEP      1, STRESS PERIOD      1
 UBDSV06 SAVING       DATA-SPDIS IN MODEL TRACK_WHIRL      PACKAGE NPF             CONNECTED TO MODEL TRACK_WHIRL      PACKAGE NPF              ON UNIT   1012 AT TIME STEP      1, STRESS PERIOD      1
 UBDSV06 SAVING              WEL IN MODEL TRACK_WHIRL      PACKAGE TRACK_WHIRL     CONNECTED TO MODEL TRACK_WHIRL      PACKAGE WEL              ON UNIT   1012 AT TIME STEP      1, STRESS PERIOD      1
1
  HEAD IN LAYER   1 AT END OF TIME STEP   1 IN STRESS PERIOD    1
  ---------------------------------------------------------------------------

            1           2           3           4           5           6           7           8           9          10
           11          12          13          14          15          16          17          18          19          20
           21          22          23          24          25          26          27          28          29          30
           31          32          33          34          35          36          37          38          39          40
           41          42          43          44          45          46          47          48          49          50
           51
 ....................................................................................................................................................................................................................................................................................................................................................................................................................................................................................................................................................................................................................................
   1   6.3658E-03  6.0529E-03  5.7695E-03  5.5091E-03  5.2637E-03  5.0272E-03  4.7953E-03  4.5654E-03  4.3362E-03  4.1069E-03
       3.8773E-03  3.6473E-03  3.4171E-03  3.1867E-03  2.9561E-03  2.7254E-03  2.4948E-03  2.2641E-03  2.0334E-03  1.8027E-03
       1.5720E-03  1.3413E-03  1.1107E-03  8.7998E-04  6.4932E-04  4.1865E-04  1.8799E-04 -4.2667E-05 -2.7332E-04 -5.0398E-04
      -7.3463E-04 -9.6528E-04 -1.1959E-03 -1.4266E-03 -1.6572E-03 -1.8879E-03 -2.1185E-03 -2.3491E-03 -2.5797E-03 -2.8102E-03
      -3.0408E-03 -3.2714E-03 -3.5021E-03 -3.7331E-03 -3.9646E-03 -4.1972E-03 -4.4314E-03 -4.6683E-03 -4.9094E-03 -5.1573E-03
      -5.4163E-03
   2   6.1583E-03  5.8633E-03  5.5981E-03  5.3514E-03  5.1151E-03  4.8838E-03  4.6547E-03  4.4261E-03  4.1972E-03  3.9678E-03
       3.7380E-03  3.5079E-03  3.2774E-03  3.0469E-03  2.8162E-03  2.5855E-03  2.3548E-03  2.1241E-03  1.8934E-03  1.6627E-03
       1.4321E-03  1.2014E-03  9.7072E-04  7.4006E-04  5.0939E-04  2.7873E-04  4.8072E-05 -1.8259E-04 -4.1324E-04 -6.4390E-04
      -8.7455E-04 -1.1052E-03 -1.3358E-03 -1.5665E-03 -1.7971E-03 -2.0277E-03 -2.2584E-03 -2.4890E-03 -2.7195E-03 -2.9501E-03
      -3.1807E-03 -3.4114E-03 -3.6423E-03 -3.8737E-03 -4.1058E-03 -4.3391E-03 -4.5744E-03 -4.8123E-03 -5.0539E-03 -5.2994E-03
      -5.5479E-03
   3   5.9949E-03  5.7233E-03  5.4754E-03  5.2401E-03  5.0105E-03  4.7829E-03  4.5555E-03  4.3274E-03  4.0985E-03  3.8689E-03
       3.6389E-03  3.4085E-03  3.1779E-03  2.9472E-03  2.7165E-03  2.4858E-03  2.2551E-03  2.0244E-03  1.7937E-03  1.5630E-03
       1.3323E-03  1.1016E-03  8.7096E-04  6.4030E-04  4.0963E-04  1.7897E-04 -5.1685E-05 -2.8234E-04 -5.1300E-04 -7.4365E-04
      -9.7430E-04 -1.2049E-03 -1.4356E-03 -1.6662E-03 -1.8969E-03 -2.1275E-03 -2.3581E-03 -2.5887E-03 -2.8193E-03 -3.0499E-03
      -3.2806E-03 -3.5115E-03 -3.7426E-03 -3.9743E-03 -4.2068E-03 -4.4405E-03 -4.6757E-03 -4.9125E-03 -5.1501E-03 -5.3863E-03
      -5.6160E-03
   4   5.8742E-03  5.6243E-03  5.3906E-03  5.1637E-03  4.9387E-03  4.7132E-03  4.4864E-03  4.2582E-03  4.0290E-03  3.7990E-03
       3.5686E-03  3.3379E-03  3.1072E-03  2.8765E-03  2.6457E-03  2.4150E-03  2.1843E-03  1.9536E-03  1.7229E-03  1.4922E-03
       1.2615E-03  1.0309E-03  8.0020E-04  5.6953E-04  3.3887E-04  1.0821E-04 -1.2245E-04 -3.5310E-04 -5.8376E-04 -8.1441E-04
      -1.0451E-03 -1.2757E-03 -1.5063E-03 -1.7370E-03 -1.9676E-03 -2.1982E-03 -2.4289E-03 -2.6595E-03 -2.8901E-03 -3.1208E-03
      -3.3516E-03 -3.5826E-03 -3.8140E-03 -4.0458E-03 -4.2783E-03 -4.5115E-03 -4.7452E-03 -4.9786E-03 -5.2096E-03 -5.4349E-03
      -5.6510E-03
   5   5.7889E-03  5.5565E-03  5.3332E-03  5.1118E-03  4.8890E-03  4.6640E-03  4.4368E-03  4.2080E-03  3.9781E-03  3.7477E-03
       3.5169E-03  3.2861E-03  3.0553E-03  2.8245E-03  2.5937E-03  2.3630E-03  2.1323E-03  1.9016E-03  1.6709E-03  1.4402E-03
       1.2096E-03  9.7891E-04  7.4825E-04  5.1758E-04  2.8692E-04  5.6263E-05 -1.7439E-04 -4.0505E-04 -6.3570E-04 -8.6635E-04
      -1.0970E-03 -1.3276E-03 -1.5583E-03 -1.7889E-03 -2.0196E-03 -2.2502E-03 -2.4808E-03 -2.7115E-03 -2.9422E-03 -3.1729E-03
      -3.4038E-03 -3.6349E-03 -3.8663E-03 -4.0980E-03 -4.3300E-03 -4.5619E-03 -4.7930E-03 -5.0219E-03 -5.2464E-03 -5.4641E-03
      -5.6746E-03
   6   5.7309E-03  5.5113E-03  5.2943E-03  5.0751E-03  4.8523E-03  4.6263E-03  4.3979E-03  4.1680E-03  3.9374E-03  3.7065E-03
       3.4755E-03  3.2446E-03  3.0137E-03  2.7829E-03  2.5521E-03  2.3214E-03  2.0907E-03  1.8600E-03  1.6294E-03  1.3987E-03
       1.1680E-03  9.3736E-04  7.0670E-04  4.7604E-04  2.4538E-04  1.4718E-05 -2.1594E-04 -4.4659E-04 -6.7725E-04 -9.0790E-04
      -1.1385E-03 -1.3692E-03 -1.5998E-03 -1.8305E-03 -2.0611E-03 -2.2918E-03 -2.5224E-03 -2.7531E-03 -2.9838E-03 -3.2147E-03
      -3.4456E-03 -3.6767E-03 -3.9079E-03 -4.1392E-03 -4.3702E-03 -4.6003E-03 -4.8286E-03 -5.0536E-03 -5.2738E-03 -5.4888E-03
      -5.7008E-03
   7   5.6926E-03  5.4805E-03  5.2655E-03  5.0453E-03  4.8203E-03  4.5920E-03  4.3619E-03  4.1308E-03  3.8995E-03  3.6683E-03
       3.4372E-03  3.2062E-03  2.9753E-03  2.7446E-03  2.5138E-03  2.2831E-03  2.0525E-03  1.8218E-03  1.5911E-03  1.3605E-03
       1.1298E-03  8.9913E-04  6.6847E-04  4.3780E-04  2.0714E-04 -2.3514E-05 -2.5417E-04 -4.8482E-04 -7.1548E-04 -9.4613E-04
      -1.1768E-03 -1.4074E-03 -1.6381E-03 -1.8687E-03 -2.0994E-03 -2.3300E-03 -2.5607E-03 -2.7914E-03 -3.0222E-03 -3.2530E-03
      -3.4839E-03 -3.7149E-03 -3.9458E-03 -4.1763E-03 -4.4062E-03 -4.6346E-03 -4.8606E-03 -5.0833E-03 -5.3025E-03 -5.5195E-03
      -5.7391E-03
   8   5.6664E-03  5.4559E-03  5.2381E-03  5.0137E-03  4.7848E-03  4.5536E-03  4.3217E-03  4.0897E-03  3.8579E-03  3.6265E-03
       3.3954E-03  3.1645E-03  2.9337E-03  2.7029E-03  2.4722E-03  2.2416E-03  2.0109E-03  1.7802E-03  1.5496E-03  1.3189E-03
       1.0883E-03  8.5759E-04  6.2692E-04  3.9626E-04  1.6560E-04 -6.5059E-05 -2.9571E-04 -5.2637E-04 -7.5702E-04 -9.8767E-04
      -1.2183E-03 -1.4490E-03 -1.6796E-03 -1.9103E-03 -2.1409E-03 -2.3716E-03 -2.6023E-03 -2.8330E-03 -3.0638E-03 -3.2946E-03
      -3.5254E-03 -3.7561E-03 -3.9865E-03 -4.2163E-03 -4.4451E-03 -4.6723E-03 -4.8973E-03 -5.1200E-03 -5.3414E-03 -5.5648E-03
      -5.7971E-03
   9   5.6427E-03  5.4267E-03  5.2013E-03  4.9703E-03  4.7369E-03  4.5032E-03  4.2699E-03  4.0374E-03  3.8056E-03  3.5742E-03
       3.3432E-03  3.1123E-03  2.8816E-03  2.6509E-03  2.4203E-03  2.1896E-03  1.9590E-03  1.7283E-03  1.4976E-03  1.2670E-03
       1.0363E-03  8.0564E-04  5.7497E-04  3.4431E-04  1.1365E-04 -1.1701E-04 -3.4766E-04 -5.7832E-04 -8.0897E-04 -1.0396E-03
      -1.2703E-03 -1.5009E-03 -1.7316E-03 -1.9622E-03 -2.1929E-03 -2.4236E-03 -2.6543E-03 -2.8850E-03 -3.1157E-03 -3.3464E-03
      -3.5770E-03 -3.8074E-03 -4.0373E-03 -4.2665E-03 -4.4947E-03 -4.7215E-03 -4.9470E-03 -5.1720E-03 -5.3988E-03 -5.6325E-03
      -5.8824E-03
  10   5.6077E-03  5.3781E-03  5.1419E-03  4.9042E-03  4.6674E-03  4.4322E-03  4.1984E-03  3.9659E-03  3.7342E-03  3.5030E-03
       3.2722E-03  3.0414E-03  2.8108E-03  2.5801E-03  2.3495E-03  2.1189E-03  1.8882E-03  1.6575E-03  1.4269E-03  1.1962E-03
       9.6554E-04  7.3487E-04  5.0421E-04  2.7355E-04  4.2888E-05 -1.8777E-04 -4.1842E-04 -6.4908E-04 -8.7973E-04 -1.1104E-03
      -1.3410E-03 -1.5717E-03 -1.8023E-03 -2.0330E-03 -2.2637E-03 -2.4943E-03 -2.7250E-03 -2.9557E-03 -3.1863E-03 -3.4169E-03
      -3.6473E-03 -3.8773E-03 -4.1069E-03 -4.3357E-03 -4.5638E-03 -4.7912E-03 -5.0188E-03 -5.2483E-03 -5.4836E-03 -5.7315E-03
      -6.0031E-03
  11   5.5397E-03  5.2912E-03  5.0456E-03  4.8041E-03  4.5661E-03  4.3308E-03  4.0974E-03  3.8653E-03  3.6339E-03  3.4030E-03
       3.1722E-03  2.9416E-03  2.7110E-03  2.4804E-03  2.2497E-03  2.0191E-03  1.7884E-03  1.5578E-03  1.3271E-03  1.0964E-03
       8.6578E-04  6.3511E-04  4.0445E-04  1.7379E-04 -5.6868E-05 -2.8752E-04 -5.1818E-04 -7.4883E-04 -9.7948E-04 -1.2101E-03
      -1.4408E-03 -1.6714E-03 -1.9021E-03 -2.1328E-03 -2.3634E-03 -2.5941E-03 -2.8247E-03 -3.0554E-03 -3.2859E-03 -3.5163E-03
      -3.7464E-03 -3.9762E-03 -4.2055E-03 -4.4344E-03 -4.6630E-03 -4.8921E-03 -5.1233E-03 -5.3596E-03 -5.6063E-03 -5.8715E-03
      -6.1665E-03
  12   5.4081E-03  5.1490E-03  4.9012E-03  4.6600E-03  4.4231E-03  4.1888E-03  3.9562E-03  3.7247E-03  3.4936E-03  3.2629E-03
       3.0323E-03  2.8017E-03  2.5711E-03  2.3405E-03  2.1098E-03  1.8792E-03  1.6485E-03  1.4179E-03  1.1872E-03  9.5652E-04
       7.2586E-04  4.9519E-04  2.6453E-04  3.3871E-05 -1.9679E-04 -4.2744E-04 -6.5809E-04 -8.8875E-04 -1.1194E-03 -1.3501E-03
      -1.5807E-03 -1.8114E-03 -2.0420E-03 -2.2727E-03 -2.5033E-03 -2.7340E-03 -2.9646E-03 -3.1951E-03 -3.4255E-03 -3.6557E-03
      -3.8856E-03 -4.1152E-03 -4.3445E-03 -4.5737E-03 -4.8035E-03 -5.0354E-03 -5.2719E-03 -5.5173E-03 -5.7777E-03 -6.0611E-03
      -6.3741E-03
1
  HEAD IN LAYER   2 AT END OF TIME STEP   1 IN STRESS PERIOD    1
  ---------------------------------------------------------------------------

            1           2           3           4           5           6           7           8           9          10
           11          12          13          14          15          16          17          18          19          20
           21          22          23          24          25          26          27          28          29          30
           31          32          33          34          35          36          37          38          39          40
           41          42          43          44          45          46          47          48          49          50
           51
 ....................................................................................................................................................................................................................................................................................................................................................................................................................................................................................................................................................................................................................................
   1   6.3260E-03  6.0189E-03  5.7396E-03  5.4814E-03  5.2370E-03  5.0008E-03  4.7689E-03  4.5389E-03  4.3096E-03  4.0802E-03
       3.8505E-03  3.6205E-03  3.3903E-03  3.1598E-03  2.9292E-03  2.6986E-03  2.4679E-03  2.2372E-03  2.0065E-03  1.7758E-03
       1.5452E-03  1.3145E-03  1.0838E-03  8.5314E-04  6.2248E-04  3.9181E-04  1.6115E-04 -6.9507E-05 -3.0016E-04 -5.3082E-04
      -7.6147E-04 -9.9212E-04 -1.2228E-03 -1.4534E-03 -1.6841E-03 -1.9147E-03 -2.1453E-03 -2.3759E-03 -2.6065E-03 -2.8370E-03
      -3.0676E-03 -3.2982E-03 -3.5288E-03 -3.7598E-03 -3.9913E-03 -4.2238E-03 -4.4580E-03 -4.6948E-03 -4.9357E-03 -5.1826E-03
      -5.4391E-03
   2   6.1267E-03  5.8369E-03  5.5747E-03  5.3294E-03  5.0936E-03  4.8623E-03  4.6331E-03  4.4043E-03  4.1753E-03  3.9458E-03
       3.7160E-03  3.4858E-03  3.2553E-03  3.0248E-03  2.7941E-03  2.5634E-03  2.3327E-03  2.1020E-03  1.8713E-03  1.6407E-03
       1.4100E-03  1.1793E-03  9.4863E-04  7.1797E-04  4.8730E-04  2.5664E-04  2.5983E-05 -2.0467E-04 -4.3533E-04 -6.6598E-04
      -8.9664E-04 -1.1273E-03 -1.3579E-03 -1.5886E-03 -1.8192E-03 -2.0498E-03 -2.2805E-03 -2.5110E-03 -2.7416E-03 -2.9722E-03
      -3.2028E-03 -3.4335E-03 -3.6643E-03 -3.8956E-03 -4.1276E-03 -4.3609E-03 -4.5960E-03 -4.8337E-03 -5.0747E-03 -5.3190E-03
      -5.5647E-03
   3   5.9721E-03  5.7049E-03  5.4592E-03  5.2247E-03  4.9953E-03  4.7676E-03  4.5399E-03  4.3117E-03  4.0827E-03  3.8530E-03
       3.6229E-03  3.3925E-03  3.1619E-03  2.9312E-03  2.7005E-03  2.4698E-03  2.2391E-03  2.0084E-03  1.7777E-03  1.5470E-03
       1.3164E-03  1.0857E-03  8.5501E-04  6.2435E-04  3.9369E-04  1.6303E-04 -6.7632E-05 -2.9829E-04 -5.2894E-04 -7.5960E-04
      -9.9025E-04 -1.2209E-03 -1.4515E-03 -1.6822E-03 -1.9128E-03 -2.1434E-03 -2.3741E-03 -2.6047E-03 -2.8353E-03 -3.0659E-03
      -3.2965E-03 -3.5274E-03 -3.7585E-03 -3.9900E-03 -4.2224E-03 -4.4559E-03 -4.6909E-03 -4.9273E-03 -5.1643E-03 -5.3992E-03
      -5.6263E-03
   4   5.8590E-03  5.6125E-03  5.3803E-03  5.1539E-03  4.9289E-03  4.7032E-03  4.4763E-03  4.2480E-03  4.0186E-03  3.7886E-03
       3.5582E-03  3.3276E-03  3.0969E-03  2.8661E-03  2.6354E-03  2.4046E-03  2.1739E-03  1.9432E-03  1.7125E-03  1.4819E-03
       1.2512E-03  1.0205E-03  7.8985E-04  5.5919E-04  3.2853E-04  9.7865E-05 -1.3279E-04 -3.6345E-04 -5.9410E-04 -8.2475E-04
      -1.0554E-03 -1.2860E-03 -1.5167E-03 -1.7473E-03 -1.9780E-03 -2.2086E-03 -2.4392E-03 -2.6698E-03 -2.9005E-03 -3.1312E-03
      -3.3619E-03 -3.5929E-03 -3.8242E-03 -4.0559E-03 -4.2882E-03 -4.5212E-03 -4.7547E-03 -4.9876E-03 -5.2180E-03 -5.4423E-03
      -5.6564E-03
   5   5.7796E-03  5.5498E-03  5.3275E-03  5.1063E-03  4.8835E-03  4.6584E-03  4.4311E-03  4.2022E-03  3.9723E-03  3.7419E-03
       3.5112E-03  3.2804E-03  3.0495E-03  2.8188E-03  2.5880E-03  2.3573E-03  2.1266E-03  1.8959E-03  1.6652E-03  1.4345E-03
       1.2039E-03  9.7319E-04  7.4252E-04  5.1186E-04  2.8120E-04  5.0541E-05 -1.8012E-04 -4.1077E-04 -6.4142E-04 -8.7207E-04
      -1.1027E-03 -1.3334E-03 -1.5640E-03 -1.7946E-03 -2.0253E-03 -2.2559E-03 -2.4866E-03 -2.7172E-03 -2.9479E-03 -3.1787E-03
      -3.4095E-03 -3.6406E-03 -3.8719E-03 -4.1035E-03 -4.3353E-03 -4.5670E-03 -4.7979E-03 -5.0265E-03 -5.2505E-03 -5.4675E-03
      -5.6764E-03
   6   5.7260E-03  5.5083E-03  5.2920E-03  5.0731E-03  4.8503E-03  4.6243E-03  4.3959E-03  4.1660E-03  3.9355E-03  3.7046E-03
       3.4736E-03  3.2427E-03  3.0118E-03  2.7811E-03  2.5503E-03  2.3196E-03  2.0889E-03  1.8582E-03  1.6275E-03  1.3969E-03
       1.1662E-03  9.3554E-04  7.0488E-04  4.7422E-04  2.4355E-04  1.2896E-05 -2.1776E-04 -4.4842E-04 -6.7907E-04 -9.0972E-04
      -1.1404E-03 -1.3710E-03 -1.6017E-03 -1.8323E-03 -2.0629E-03 -2.2936E-03 -2.5242E-03 -2.7549E-03 -2.9857E-03 -3.2165E-03
      -3.4474E-03 -3.6784E-03 -3.9096E-03 -4.1408E-03 -4.3717E-03 -4.6017E-03 -4.8298E-03 -5.0546E-03 -5.2746E-03 -5.4889E-03
      -5.6994E-03
   7   5.6912E-03  5.4806E-03  5.2663E-03  5.0464E-03  4.8216E-03  4.5934E-03  4.3634E-03  4.1324E-03  3.9012E-03  3.6700E-03
       3.4390E-03  3.2080E-03  2.9772E-03  2.7464E-03  2.5157E-03  2.2850E-03  2.0543E-03  1.8236E-03  1.5930E-03  1.3623E-03
       1.1316E-03  9.0095E-04  6.7029E-04  4.3963E-04  2.0897E-04 -2.1692E-05 -2.5235E-04 -4.8300E-04 -7.1365E-04 -9.4430E-04
      -1.1750E-03 -1.4056E-03 -1.6362E-03 -1.8669E-03 -2.0975E-03 -2.3282E-03 -2.5589E-03 -2.7896E-03 -3.0203E-03 -3.2512E-03
      -3.4821E-03 -3.7130E-03 -3.9438E-03 -4.1744E-03 -4.4042E-03 -4.6326E-03 -4.8586E-03 -5.0813E-03 -5.3002E-03 -5.5165E-03
      -5.7343E-03
   8   5.6681E-03  5.4592E-03  5.2423E-03  5.0182E-03  4.7896E-03  4.5587E-03  4.3270E-03  4.0952E-03  3.8635E-03  3.6322E-03
       3.4011E-03  3.1702E-03  2.9394E-03  2.7087E-03  2.4780E-03  2.2473E-03  2.0166E-03  1.7860E-03  1.5553E-03  1.3246E-03
       1.0940E-03  8.6331E-04  6.3264E-04  4.0198E-04  1.7132E-04 -5.9337E-05 -2.8999E-04 -5.2065E-04 -7.5130E-04 -9.8195E-04
      -1.2126E-03 -1.4432E-03 -1.6739E-03 -1.9045E-03 -2.1352E-03 -2.3659E-03 -2.5966E-03 -2.8273E-03 -3.0580E-03 -3.2888E-03
      -3.5196E-03 -3.7503E-03 -3.9807E-03 -4.2106E-03 -4.4394E-03 -4.6667E-03 -4.8918E-03 -5.1145E-03 -5.3357E-03 -5.5580E-03
      -5.7879E-03
   9   5.6482E-03  5.4341E-03  5.2097E-03  4.9793E-03  4.7464E-03  4.5129E-03  4.2799E-03  4.0475E-03  3.8158E-03  3.5845E-03
       3.3535E-03  3.1227E-03  2.8920E-03  2.6613E-03  2.4306E-03  2.2000E-03  1.9693E-03  1.7386E-03  1.5080E-03  1.2773E-03
       1.0466E-03  8.1598E-04  5.8532E-04  3.5466E-04  1.2400E-04 -1.0666E-04 -3.3732E-04 -5.6797E-04 -7.9862E-04 -1.0293E-03
      -1.2599E-03 -1.4906E-03 -1.7212E-03 -1.9519E-03 -2.1825E-03 -2.4132E-03 -2.6439E-03 -2.8746E-03 -3.1053E-03 -3.3360E-03
      -3.5666E-03 -3.7970E-03 -4.0270E-03 -4.2563E-03 -4.4846E-03 -4.7115E-03 -4.9372E-03 -5.1622E-03 -5.3886E-03 -5.6208E-03
      -5.8672E-03
  10   5.6181E-03  5.3909E-03  5.1560E-03  4.9190E-03  4.6826E-03  4.4476E-03  4.2141E-03  3.9817E-03  3.7501E-03  3.5189E-03
       3.2881E-03  3.0574E-03  2.8267E-03  2.5961E-03  2.3655E-03  2.1348E-03  1.9041E-03  1.6735E-03  1.4428E-03  1.2122E-03
       9.8149E-04  7.5082E-04  5.2016E-04  2.8950E-04  5.8836E-05 -1.7182E-04 -4.0248E-04 -6.3313E-04 -8.6378E-04 -1.0944E-03
      -1.3251E-03 -1.5557E-03 -1.7864E-03 -2.0170E-03 -2.2477E-03 -2.4784E-03 -2.7091E-03 -2.9397E-03 -3.1704E-03 -3.4009E-03
      -3.6313E-03 -3.8614E-03 -4.0910E-03 -4.3200E-03 -4.5482E-03 -4.7758E-03 -5.0035E-03 -5.2329E-03 -5.4674E-03 -5.7131E-03
      -5.9803E-03
  11   5.5564E-03  5.3107E-03  5.0665E-03  4.8255E-03  4.5877E-03  4.3526E-03  4.1193E-03  3.8872E-03  3.6559E-03  3.4250E-03
       3.1943E-03  2.9637E-03  2.7331E-03  2.5025E-03  2.2718E-03  2.0412E-03  1.8105E-03  1.5799E-03  1.3492E-03  1.1185E-03
       8.8787E-04  6.5720E-04  4.2654E-04  1.9588E-04 -3.4778E-05 -2.6543E-04 -4.9609E-04 -7.2674E-04 -9.5739E-04 -1.1880E-03
      -1.4187E-03 -1.6494E-03 -1.8800E-03 -2.1107E-03 -2.3413E-03 -2.5720E-03 -2.8026E-03 -3.0333E-03 -3.2638E-03 -3.4942E-03
      -3.7244E-03 -3.9542E-03 -4.1836E-03 -4.4126E-03 -4.6414E-03 -4.8706E-03 -5.1018E-03 -5.3377E-03 -5.5830E-03 -5.8451E-03
      -6.1349E-03
  12   5.4308E-03  5.1744E-03  4.9274E-03  4.6865E-03  4.4497E-03  4.2155E-03  3.9829E-03  3.7514E-03  3.5204E-03  3.2897E-03
       3.0591E-03  2.8285E-03  2.5979E-03  2.3673E-03  2.1367E-03  1.9060E-03  1.6754E-03  1.4447E-03  1.2140E-03  9.8337E-04
       7.5270E-04  5.2203E-04  2.9137E-04  6.0712E-05 -1.6995E-04 -4.0060E-04 -6.3125E-04 -8.6191E-04 -1.0926E-03 -1.3232E-03
      -1.5539E-03 -1.7845E-03 -2.0152E-03 -2.2458E-03 -2.4765E-03 -2.7071E-03 -2.9377E-03 -3.1683E-03 -3.3987E-03 -3.6289E-03
      -3.8589E-03 -4.0885E-03 -4.3179E-03 -4.5472E-03 -4.7772E-03 -5.0091E-03 -5.2452E-03 -5.4896E-03 -5.7478E-03 -6.0271E-03
      -6.3342E-03
1
  HEAD IN LAYER   3 AT END OF TIME STEP   1 IN STRESS PERIOD    1
  ---------------------------------------------------------------------------

            1           2           3           4           5           6           7           8           9          10
           11          12          13          14          15          16          17          18          19          20
           21          22          23          24          25          26          27          28          29          30
           31          32          33          34          35          36          37          38          39          40
           41          42          43          44          45          46          47          48          49          50
           51
 ....................................................................................................................................................................................................................................................................................................................................................................................................................................................................................................................................................................................................................................
   1   6.2445E-03  5.9495E-03  5.6778E-03  5.4237E-03  5.1811E-03  4.9455E-03  4.7135E-03  4.4834E-03  4.2538E-03  4.0242E-03
       3.7944E-03  3.5643E-03  3.3340E-03  3.1035E-03  2.8729E-03  2.6423E-03  2.4116E-03  2.1809E-03  1.9502E-03  1.7195E-03
       1.4889E-03  1.2582E-03  1.0275E-03  7.9685E-04  5.6618E-04  3.3552E-04  1.0486E-04 -1.2580E-04 -3.5646E-04 -5.8711E-04
      -8.1776E-04 -1.0484E-03 -1.2791E-03 -1.5097E-03 -1.7404E-03 -1.9710E-03 -2.2016E-03 -2.4322E-03 -2.6628E-03 -2.8933E-03
      -3.1238E-03 -3.3544E-03 -3.5850E-03 -3.8159E-03 -4.0473E-03 -4.2797E-03 -4.5138E-03 -4.7505E-03 -4.9911E-03 -5.2365E-03
      -5.4878E-03
   2   6.0637E-03  5.7845E-03  5.5280E-03  5.2851E-03  5.0499E-03  4.8186E-03  4.5891E-03  4.3599E-03  4.1307E-03  3.9011E-03
       3.6711E-03  3.4408E-03  3.2104E-03  2.9798E-03  2.7491E-03  2.5185E-03  2.2878E-03  2.0571E-03  1.8264E-03  1.5957E-03
       1.3650E-03  1.1344E-03  9.0369E-04  6.7302E-04  4.4236E-04  2.1170E-04 -1.8960E-05 -2.4962E-04 -4.8027E-04 -7.1093E-04
      -9.4158E-04 -1.1722E-03 -1.4029E-03 -1.6335E-03 -1.8642E-03 -2.0948E-03 -2.3254E-03 -2.5560E-03 -2.7866E-03 -3.0171E-03
      -3.2477E-03 -3.4783E-03 -3.7091E-03 -3.9403E-03 -4.1721E-03 -4.4052E-03 -4.6400E-03 -4.8773E-03 -5.1174E-03 -5.3594E-03
      -5.5997E-03
   3   5.9279E-03  5.6693E-03  5.4276E-03  5.1945E-03  4.9652E-03  4.7372E-03  4.5091E-03  4.2805E-03  4.0513E-03  3.8215E-03
       3.5913E-03  3.3609E-03  3.1303E-03  2.8996E-03  2.6689E-03  2.4382E-03  2.2075E-03  1.9768E-03  1.7461E-03  1.5154E-03
       1.2848E-03  1.0541E-03  8.2342E-04  5.9275E-04  3.6209E-04  1.3143E-04 -9.9228E-05 -3.2988E-04 -5.6054E-04 -7.9119E-04
      -1.0218E-03 -1.2525E-03 -1.4831E-03 -1.7138E-03 -1.9444E-03 -2.1750E-03 -2.4057E-03 -2.6363E-03 -2.8669E-03 -3.0975E-03
      -3.3281E-03 -3.5589E-03 -3.7898E-03 -4.0213E-03 -4.2534E-03 -4.4865E-03 -4.7210E-03 -4.9566E-03 -5.1924E-03 -5.4251E-03
      -5.6476E-03
   4   5.8302E-03  5.5903E-03  5.3608E-03  5.1352E-03  4.9100E-03  4.6840E-03  4.4566E-03  4.2280E-03  3.9986E-03  3.7685E-03
       3.5380E-03  3.3074E-03  3.0767E-03  2.8459E-03  2.6152E-03  2.3845E-03  2.1538E-03  1.9231E-03  1.6924E-03  1.4617E-03
       1.2310E-03  1.0004E-03  7.6969E-04  5.3903E-04  3.0837E-04  7.7710E-05 -1.5295E-04 -3.8360E-04 -6.1426E-04 -8.4491E-04
      -1.0756E-03 -1.3062E-03 -1.5368E-03 -1.7675E-03 -1.9981E-03 -2.2288E-03 -2.4594E-03 -2.6900E-03 -2.9206E-03 -3.1513E-03
      -3.3821E-03 -3.6130E-03 -3.8441E-03 -4.0756E-03 -4.3076E-03 -4.5402E-03 -4.7730E-03 -5.0051E-03 -5.2345E-03 -5.4570E-03
      -5.6677E-03
   5   5.7624E-03  5.5373E-03  5.3168E-03  5.0960E-03  4.8731E-03  4.6477E-03  4.4202E-03  4.1912E-03  3.9612E-03  3.7308E-03
       3.5001E-03  3.2693E-03  3.0385E-03  2.8077E-03  2.5769E-03  2.3462E-03  2.1155E-03  1.8848E-03  1.6542E-03  1.4235E-03
       1.1928E-03  9.6214E-04  7.3148E-04  5.0082E-04  2.7016E-04  3.9496E-05 -1.9116E-04 -4.2182E-04 -6.5247E-04 -8.8312E-04
      -1.1138E-03 -1.3444E-03 -1.5751E-03 -1.8057E-03 -2.0363E-03 -2.2670E-03 -2.4976E-03 -2.7283E-03 -2.9590E-03 -3.1897E-03
      -3.4205E-03 -3.6515E-03 -3.8827E-03 -4.1141E-03 -4.3456E-03 -4.5769E-03 -4.8073E-03 -5.0353E-03 -5.2585E-03 -5.4742E-03
      -5.6804E-03
   6   5.7173E-03  5.5029E-03  5.2879E-03  5.0693E-03  4.8466E-03  4.6205E-03  4.3921E-03  4.1623E-03  3.9318E-03  3.7010E-03
       3.4701E-03  3.2392E-03  3.0083E-03  2.7775E-03  2.5468E-03  2.3161E-03  2.0854E-03  1.8547E-03  1.6240E-03  1.3934E-03
       1.1627E-03  9.3204E-04  7.0137E-04  4.7071E-04  2.4005E-04  9.3925E-06 -2.2126E-04 -4.5192E-04 -6.8257E-04 -9.1322E-04
      -1.1439E-03 -1.3745E-03 -1.6052E-03 -1.8358E-03 -2.0664E-03 -2.2971E-03 -2.5278E-03 -2.7584E-03 -2.9892E-03 -3.2200E-03
      -3.4508E-03 -3.6818E-03 -3.9129E-03 -4.1439E-03 -4.3746E-03 -4.6044E-03 -4.8322E-03 -5.0568E-03 -5.2762E-03 -5.4895E-03
      -5.6973E-03
   7   5.6891E-03  5.4812E-03  5.2680E-03  5.0485E-03  4.8240E-03  4.5961E-03  4.3663E-03  4.1356E-03  3.9045E-03  3.6734E-03
       3.4424E-03  3.2115E-03  2.9807E-03  2.7499E-03  2.5192E-03  2.2885E-03  2.0578E-03  1.8271E-03  1.5965E-03  1.3658E-03
       1.1351E-03  9.0446E-04  6.7379E-04  4.4313E-04  2.1247E-04 -1.8188E-05 -2.4884E-04 -4.7950E-04 -7.1015E-04 -9.4080E-04
      -1.1714E-03 -1.4021E-03 -1.6327E-03 -1.8634E-03 -2.0940E-03 -2.3247E-03 -2.5554E-03 -2.7861E-03 -3.0168E-03 -3.2476E-03
      -3.4785E-03 -3.7094E-03 -3.9402E-03 -4.1706E-03 -4.4004E-03 -4.6288E-03 -4.8548E-03 -5.0775E-03 -5.2962E-03 -5.5112E-03
      -5.7255E-03
   8   5.6722E-03  5.4660E-03  5.2503E-03  5.0270E-03  4.7990E-03  4.5686E-03  4.3373E-03  4.1057E-03  3.8743E-03  3.6431E-03
       3.4121E-03  3.1812E-03  2.9504E-03  2.7197E-03  2.4890E-03  2.2584E-03  2.0277E-03  1.7970E-03  1.5664E-03  1.3357E-03
       1.1050E-03  8.7435E-04  6.4369E-04  4.1303E-04  1.8237E-04 -4.8291E-05 -2.7895E-04 -5.0960E-04 -7.4025E-04 -9.7090E-04
      -1.2016E-03 -1.4322E-03 -1.6628E-03 -1.8935E-03 -2.1242E-03 -2.3548E-03 -2.5855E-03 -2.8162E-03 -3.0470E-03 -3.2777E-03
      -3.5085E-03 -3.7392E-03 -3.9696E-03 -4.1995E-03 -4.4285E-03 -4.6560E-03 -4.8813E-03 -5.1043E-03 -5.3250E-03 -5.5455E-03
      -5.7706E-03
   9   5.6595E-03  5.4488E-03  5.2262E-03  4.9969E-03  4.7647E-03  4.5319E-03  4.2993E-03  4.0673E-03  3.8357E-03  3.6045E-03
       3.3736E-03  3.1428E-03  2.9121E-03  2.6815E-03  2.4508E-03  2.2201E-03  1.9895E-03  1.7588E-03  1.5281E-03  1.2975E-03
       1.0668E-03  8.3614E-04  6.0548E-04  3.7481E-04  1.4415E-04 -8.6505E-05 -3.1716E-04 -5.4781E-04 -7.7847E-04 -1.0091E-03
      -1.2398E-03 -1.4704E-03 -1.7011E-03 -1.9317E-03 -2.1624E-03 -2.3931E-03 -2.6237E-03 -2.8544E-03 -3.0851E-03 -3.3158E-03
      -3.5464E-03 -3.7769E-03 -4.0069E-03 -4.2364E-03 -4.4649E-03 -4.6922E-03 -4.9183E-03 -5.1434E-03 -5.3691E-03 -5.5985E-03
      -5.8384E-03
  10   5.6394E-03  5.4168E-03  5.1842E-03  4.9484E-03  4.7127E-03  4.4782E-03  4.2450E-03  4.0129E-03  3.7815E-03  3.5504E-03
       3.3196E-03  3.0890E-03  2.8583E-03  2.6277E-03  2.3971E-03  2.1664E-03  1.9358E-03  1.7051E-03  1.4744E-03  1.2438E-03
       1.0131E-03  7.8242E-04  5.5176E-04  3.2109E-04  9.0434E-05 -1.4022E-04 -3.7088E-04 -6.0153E-04 -8.3218E-04 -1.0628E-03
      -1.2935E-03 -1.5241E-03 -1.7548E-03 -1.9854E-03 -2.2161E-03 -2.4468E-03 -2.6775E-03 -2.9081E-03 -3.1388E-03 -3.3693E-03
      -3.5997E-03 -3.8299E-03 -4.0596E-03 -4.2889E-03 -4.5174E-03 -4.7454E-03 -4.9735E-03 -5.2027E-03 -5.4359E-03 -5.6775E-03
      -5.9361E-03
  11   5.5914E-03  5.3511E-03  5.1091E-03  4.8690E-03  4.6317E-03  4.3968E-03  4.1638E-03  3.9319E-03  3.7007E-03  3.4699E-03
       3.2392E-03  3.0086E-03  2.7780E-03  2.5474E-03  2.3168E-03  2.0861E-03  1.8555E-03  1.6248E-03  1.3942E-03  1.1635E-03
       9.3282E-04  7.0215E-04  4.7149E-04  2.4082E-04  1.0166E-05 -2.2049E-04 -4.5115E-04 -6.8180E-04 -9.1245E-04 -1.1431E-03
      -1.3738E-03 -1.6044E-03 -1.8351E-03 -2.0657E-03 -2.2964E-03 -2.5270E-03 -2.7577E-03 -2.9883E-03 -3.2188E-03 -3.4493E-03
      -3.6795E-03 -3.9094E-03 -4.1390E-03 -4.3682E-03 -4.5974E-03 -4.8269E-03 -5.0582E-03 -5.2933E-03 -5.5362E-03 -5.7927E-03
      -6.0720E-03
  12   5.4795E-03  5.2283E-03  4.9828E-03  4.7423E-03  4.5055E-03  4.2713E-03  4.0389E-03  3.8075E-03  3.5766E-03  3.3459E-03
       3.1154E-03  2.8848E-03  2.6542E-03  2.4236E-03  2.1930E-03  1.9623E-03  1.7317E-03  1.5010E-03  1.2703E-03  1.0397E-03
       8.0900E-04  5.7833E-04  3.4767E-04  1.1701E-04 -1.1365E-04 -3.4431E-04 -5.7496E-04 -8.0561E-04 -1.0363E-03 -1.2669E-03
      -1.4976E-03 -1.7282E-03 -1.9589E-03 -2.1895E-03 -2.4202E-03 -2.6508E-03 -2.8814E-03 -3.1120E-03 -3.3424E-03 -3.5727E-03
      -3.8027E-03 -4.0325E-03 -4.2621E-03 -4.4917E-03 -4.7218E-03 -4.9537E-03 -5.1894E-03 -5.4319E-03 -5.6861E-03 -5.9577E-03
      -6.2528E-03
1
  HEAD IN LAYER   4 AT END OF TIME STEP   1 IN STRESS PERIOD    1
  ---------------------------------------------------------------------------

            1           2           3           4           5           6           7           8           9          10
           11          12          13          14          15          16          17          18          19          20
           21          22          23          24          25          26          27          28          29          30
           31          32          33          34          35          36          37          38          39          40
           41          42          43          44          45          46          47          48          49          50
           51
 ....................................................................................................................................................................................................................................................................................................................................................................................................................................................................................................................................................................................................................................
   1   6.1178E-03  5.8408E-03  5.5795E-03  5.3305E-03  5.0900E-03  4.8549E-03  4.6229E-03  4.3923E-03  4.1624E-03  3.9325E-03
       3.7026E-03  3.4724E-03  3.2420E-03  3.0115E-03  2.7809E-03  2.5503E-03  2.3196E-03  2.0889E-03  1.8582E-03  1.6275E-03
       1.3969E-03  1.1662E-03  9.3552E-04  7.0485E-04  4.7419E-04  2.4353E-04  1.2868E-05 -2.1779E-04 -4.4845E-04 -6.7910E-04
      -9.0975E-04 -1.1404E-03 -1.3711E-03 -1.6017E-03 -1.8323E-03 -2.0630E-03 -2.2936E-03 -2.5242E-03 -2.7548E-03 -2.9853E-03
      -3.2157E-03 -3.4462E-03 -3.6767E-03 -3.9075E-03 -4.1387E-03 -4.3710E-03 -4.6051E-03 -4.8419E-03 -5.0824E-03 -5.3265E-03
      -5.5709E-03
   2   5.9708E-03  5.7070E-03  5.4579E-03  5.2178E-03  4.9832E-03  4.7517E-03  4.5215E-03  4.2919E-03  4.0623E-03  3.8324E-03
       3.6023E-03  3.3719E-03  3.1415E-03  2.9109E-03  2.6802E-03  2.4495E-03  2.2189E-03  1.9882E-03  1.7575E-03  1.5268E-03
       1.2961E-03  1.0655E-03  8.3479E-04  6.0413E-04  3.7347E-04  1.4281E-04 -8.7853E-05 -3.1851E-04 -5.4916E-04 -7.7982E-04
      -1.0105E-03 -1.2411E-03 -1.4718E-03 -1.7024E-03 -1.9331E-03 -2.1637E-03 -2.3943E-03 -2.6249E-03 -2.8555E-03 -3.0860E-03
      -3.3165E-03 -3.5471E-03 -3.7777E-03 -4.0087E-03 -4.2403E-03 -4.4729E-03 -4.7073E-03 -4.9440E-03 -5.1832E-03 -5.4229E-03
      -5.6563E-03
   3   5.8655E-03  5.6194E-03  5.3829E-03  5.1511E-03  4.9216E-03  4.6929E-03  4.4642E-03  4.2350E-03  4.0054E-03  3.7754E-03
       3.5451E-03  3.3146E-03  3.0840E-03  2.8534E-03  2.6227E-03  2.3920E-03  2.1613E-03  1.9306E-03  1.6999E-03  1.4692E-03
       1.2386E-03  1.0079E-03  7.7722E-04  5.4655E-04  3.1589E-04  8.5231E-05 -1.4543E-04 -3.7608E-04 -6.0674E-04 -8.3739E-04
      -1.0680E-03 -1.2987E-03 -1.5293E-03 -1.7600E-03 -1.9906E-03 -2.2212E-03 -2.4519E-03 -2.6825E-03 -2.9131E-03 -3.1437E-03
      -3.3743E-03 -3.6049E-03 -3.8357E-03 -4.0669E-03 -4.2985E-03 -4.5311E-03 -4.7647E-03 -4.9993E-03 -5.2337E-03 -5.4640E-03
      -5.6814E-03
   4   5.7910E-03  5.5604E-03  5.3343E-03  5.1092E-03  4.8836E-03  4.6568E-03  4.4288E-03  4.1998E-03  3.9700E-03  3.7398E-03
       3.5093E-03  3.2786E-03  3.0479E-03  2.8172E-03  2.5865E-03  2.3558E-03  2.1251E-03  1.8944E-03  1.6637E-03  1.4330E-03
       1.2023E-03  9.7168E-04  7.4101E-04  5.1035E-04  2.7969E-04  4.9027E-05 -1.8163E-04 -4.1229E-04 -6.4294E-04 -8.7359E-04
      -1.1042E-03 -1.3349E-03 -1.5655E-03 -1.7962E-03 -2.0268E-03 -2.2574E-03 -2.4881E-03 -2.7187E-03 -2.9493E-03 -3.1800E-03
      -3.4107E-03 -3.6415E-03 -3.8724E-03 -4.1036E-03 -4.3351E-03 -4.5669E-03 -4.7988E-03 -5.0298E-03 -5.2579E-03 -5.4788E-03
      -5.6861E-03
   5   5.7396E-03  5.5211E-03  5.3027E-03  5.0822E-03  4.8588E-03  4.6329E-03  4.4050E-03  4.1758E-03  3.9457E-03  3.7152E-03
       3.4845E-03  3.2537E-03  3.0229E-03  2.7922E-03  2.5614E-03  2.3307E-03  2.1000E-03  1.8693E-03  1.6386E-03  1.4080E-03
       1.1773E-03  9.4664E-04  7.1597E-04  4.8531E-04  2.5465E-04  2.3991E-05 -2.0667E-04 -4.3732E-04 -6.6797E-04 -8.9862E-04
      -1.1293E-03 -1.3599E-03 -1.5906E-03 -1.8212E-03 -2.0518E-03 -2.2825E-03 -2.5131E-03 -2.7438E-03 -2.9745E-03 -3.2052E-03
      -3.4360E-03 -3.6669E-03 -3.8979E-03 -4.1289E-03 -4.3600E-03 -4.5907E-03 -4.8203E-03 -5.0474E-03 -5.2699E-03 -5.4846E-03
      -5.6880E-03
   6   5.7064E-03  5.4965E-03  5.2829E-03  5.0644E-03  4.8415E-03  4.6153E-03  4.3869E-03  4.1572E-03  3.9267E-03  3.6959E-03
       3.4651E-03  3.2342E-03  3.0034E-03  2.7726E-03  2.5419E-03  2.3112E-03  2.0805E-03  1.8498E-03  1.6192E-03  1.3885E-03
       1.1578E-03  9.2715E-04  6.9648E-04  4.6582E-04  2.3516E-04  4.5018E-06 -2.2615E-04 -4.5681E-04 -6.8746E-04 -9.1811E-04
      -1.1488E-03 -1.3794E-03 -1.6101E-03 -1.8407E-03 -2.0713E-03 -2.3020E-03 -2.5327E-03 -2.7633E-03 -2.9941E-03 -3.2248E-03
      -3.4557E-03 -3.6866E-03 -3.9175E-03 -4.1483E-03 -4.3787E-03 -4.6081E-03 -4.8356E-03 -5.0598E-03 -5.2789E-03 -5.4912E-03
      -5.6959E-03
   7   5.6877E-03  5.4830E-03  5.2707E-03  5.0516E-03  4.8274E-03  4.5998E-03  4.3704E-03  4.1399E-03  3.9091E-03  3.6782E-03
       3.4472E-03  3.2164E-03  2.9855E-03  2.7548E-03  2.5241E-03  2.2934E-03  2.0627E-03  1.8320E-03  1.6014E-03  1.3707E-03
       1.1400E-03  9.0935E-04  6.7869E-04  4.4802E-04  2.1736E-04 -1.3295E-05 -2.4395E-04 -4.7461E-04 -7.0526E-04 -9.3591E-04
      -1.1666E-03 -1.3972E-03 -1.6278E-03 -1.8585E-03 -2.0891E-03 -2.3198E-03 -2.5505E-03 -2.7812E-03 -3.0119E-03 -3.2427E-03
      -3.4735E-03 -3.7043E-03 -3.9351E-03 -4.1655E-03 -4.3952E-03 -4.6236E-03 -4.8498E-03 -5.0726E-03 -5.2911E-03 -5.5047E-03
      -5.7146E-03
   8   5.6798E-03  5.4763E-03  5.2617E-03  5.0392E-03  4.8120E-03  4.5824E-03  4.3517E-03  4.1206E-03  3.8895E-03  3.6585E-03
       3.4275E-03  3.1967E-03  2.9660E-03  2.7352E-03  2.5046E-03  2.2739E-03  2.0432E-03  1.8125E-03  1.5819E-03  1.3512E-03
       1.1205E-03  8.8986E-04  6.5920E-04  4.2853E-04  1.9787E-04 -3.2784E-05 -2.6344E-04 -4.9409E-04 -7.2475E-04 -9.5540E-04
      -1.1860E-03 -1.4167E-03 -1.6473E-03 -1.8780E-03 -2.1086E-03 -2.3393E-03 -2.5700E-03 -2.8007E-03 -3.0314E-03 -3.2622E-03
      -3.4929E-03 -3.7236E-03 -3.9541E-03 -4.1841E-03 -4.4133E-03 -4.6412E-03 -4.8671E-03 -5.0904E-03 -5.3110E-03 -5.5293E-03
      -5.7479E-03
   9   5.6778E-03  5.4706E-03  5.2496E-03  5.0216E-03  4.7905E-03  4.5586E-03  4.3268E-03  4.0953E-03  3.8641E-03  3.6331E-03
       3.4023E-03  3.1715E-03  2.9408E-03  2.7102E-03  2.4795E-03  2.2488E-03  2.0182E-03  1.7875E-03  1.5568E-03  1.3262E-03
       1.0955E-03  8.6483E-04  6.3416E-04  4.0350E-04  1.7284E-04 -5.7820E-05 -2.8848E-04 -5.1913E-04 -7.4978E-04 -9.8043E-04
      -1.2111E-03 -1.4417E-03 -1.6724E-03 -1.9030E-03 -2.1337E-03 -2.3644E-03 -2.5950E-03 -2.8257E-03 -3.0564E-03 -3.2871E-03
      -3.5177E-03 -3.7482E-03 -3.9784E-03 -4.2081E-03 -4.4371E-03 -4.6651E-03 -4.8918E-03 -5.1175E-03 -5.3426E-03 -5.5686E-03
      -5.7993E-03
  10   5.6732E-03  5.4558E-03  5.2254E-03  4.9910E-03  4.7564E-03  4.5228E-03  4.2902E-03  4.0585E-03  3.8274E-03  3.5965E-03
       3.3658E-03  3.1352E-03  2.9045E-03  2.6739E-03  2.4433E-03  2.2126E-03  1.9820E-03  1.7513E-03  1.5206E-03  1.2900E-03
       1.0593E-03  8.2862E-04  5.9796E-04  3.6729E-04  1.3663E-04 -9.4024E-05 -3.2468E-04 -5.5533E-04 -7.8599E-04 -1.0166E-03
      -1.2473E-03 -1.4779E-03 -1.7086E-03 -1.9392E-03 -2.1699E-03 -2.4006E-03 -2.6312E-03 -2.8619E-03 -3.0925E-03 -3.3231E-03
      -3.5535E-03 -3.7838E-03 -4.0138E-03 -4.2433E-03 -4.4725E-03 -4.7012E-03 -4.9299E-03 -5.1594E-03 -5.3911E-03 -5.6277E-03
      -5.8738E-03
  11   5.6481E-03  5.4146E-03  5.1749E-03  4.9358E-03  4.6990E-03  4.4646E-03  4.2319E-03  4.0003E-03  3.7693E-03  3.5386E-03
       3.3081E-03  3.0775E-03  2.8469E-03  2.6163E-03  2.3857E-03  2.1551E-03  1.9244E-03  1.6937E-03  1.4631E-03  1.2324E-03
       1.0017E-03  7.7105E-04  5.4038E-04  3.0972E-04  7.9062E-05 -1.5160E-04 -3.8225E-04 -6.1291E-04 -8.4356E-04 -1.0742E-03
      -1.3049E-03 -1.5355E-03 -1.7662E-03 -1.9968E-03 -2.2275E-03 -2.4581E-03 -2.6888E-03 -2.9194E-03 -3.1499E-03 -3.3804E-03
      -3.6107E-03 -3.8408E-03 -4.0706E-03 -4.3002E-03 -4.5298E-03 -4.7599E-03 -4.9915E-03 -5.2260E-03 -5.4661E-03 -5.7152E-03
      -5.9790E-03
  12   5.5626E-03  5.3183E-03  5.0741E-03  4.8336E-03  4.5968E-03  4.3627E-03  4.1304E-03  3.8991E-03  3.6683E-03  3.4378E-03
       3.2073E-03  2.9768E-03  2.7462E-03  2.5156E-03  2.2850E-03  2.0543E-03  1.8237E-03  1.5930E-03  1.3623E-03  1.1317E-03
       9.0099E-04  6.7033E-04  4.3966E-04  2.0900E-04 -2.1658E-05 -2.5231E-04 -4.8297E-04 -7.1362E-04 -9.4428E-04 -1.1749E-03
      -1.4056E-03 -1.6362E-03 -1.8669E-03 -2.0975E-03 -2.3282E-03 -2.5588E-03 -2.7894E-03 -3.0200E-03 -3.2505E-03 -3.4808E-03
      -3.7109E-03 -3.9409E-03 -4.1707E-03 -4.4007E-03 -4.6311E-03 -4.8632E-03 -5.0982E-03 -5.3387E-03 -5.5878E-03 -5.8490E-03
      -6.1260E-03
1
  HEAD IN LAYER   5 AT END OF TIME STEP   1 IN STRESS PERIOD    1
  ---------------------------------------------------------------------------

            1           2           3           4           5           6           7           8           9          10
           11          12          13          14          15          16          17          18          19          20
           21          22          23          24          25          26          27          28          29          30
           31          32          33          34          35          36          37          38          39          40
           41          42          43          44          45          46          47          48          49          50
           51
 ....................................................................................................................................................................................................................................................................................................................................................................................................................................................................................................................................................................................................................................
   1   5.9394E-03  5.6844E-03  5.4338E-03  5.1895E-03  4.9508E-03  4.7161E-03  4.4839E-03  4.2531E-03  4.0227E-03  3.7926E-03
       3.5624E-03  3.3321E-03  3.1016E-03  2.8711E-03  2.6405E-03  2.4098E-03  2.1792E-03  1.9485E-03  1.7178E-03  1.4871E-03
       1.2565E-03  1.0258E-03  7.9513E-04  5.6446E-04  3.3380E-04  1.0314E-04 -1.2752E-04 -3.5818E-04 -5.8883E-04 -8.1949E-04
      -1.0501E-03 -1.2808E-03 -1.5114E-03 -1.7421E-03 -1.9727E-03 -2.2034E-03 -2.4340E-03 -2.6646E-03 -2.8951E-03 -3.1256E-03
      -3.3560E-03 -3.5864E-03 -3.8167E-03 -4.0473E-03 -4.2784E-03 -4.5106E-03 -4.7447E-03 -4.9819E-03 -5.2233E-03 -5.4682E-03
      -5.7080E-03
   2   5.8535E-03  5.6086E-03  5.3666E-03  5.1285E-03  4.8939E-03  4.6616E-03  4.4307E-03  4.2003E-03  3.9702E-03  3.7400E-03
       3.5097E-03  3.2793E-03  3.0488E-03  2.8182E-03  2.5876E-03  2.3569E-03  2.1262E-03  1.8955E-03  1.6649E-03  1.4342E-03
       1.2035E-03  9.7284E-04  7.4217E-04  5.1150E-04  2.8084E-04  5.0181E-05 -1.8048E-04 -4.1113E-04 -6.4179E-04 -8.7244E-04
      -1.1031E-03 -1.3337E-03 -1.5644E-03 -1.7950E-03 -2.0257E-03 -2.2563E-03 -2.4869E-03 -2.7175E-03 -2.9481E-03 -3.1786E-03
      -3.4091E-03 -3.6395E-03 -3.8699E-03 -4.1006E-03 -4.3317E-03 -4.5638E-03 -4.7974E-03 -5.0334E-03 -5.2720E-03 -5.5109E-03
      -5.7407E-03
   3   5.7924E-03  5.5613E-03  5.3296E-03  5.0983E-03  4.8678E-03  4.6378E-03  4.4079E-03  4.1780E-03  3.9479E-03  3.7176E-03
       3.4872E-03  3.2566E-03  3.0260E-03  2.7953E-03  2.5647E-03  2.3340E-03  2.1033E-03  1.8726E-03  1.6419E-03  1.4113E-03
       1.1806E-03  9.4993E-04  7.1927E-04  4.8860E-04  2.5794E-04  2.7281E-05 -2.0338E-04 -4.3403E-04 -6.6469E-04 -8.9534E-04
      -1.1260E-03 -1.3566E-03 -1.5873E-03 -1.8179E-03 -2.0486E-03 -2.2792E-03 -2.5098E-03 -2.7405E-03 -2.9711E-03 -3.2016E-03
      -3.4322E-03 -3.6627E-03 -3.8933E-03 -4.1240E-03 -4.3550E-03 -4.5865E-03 -4.8188E-03 -5.0518E-03 -5.2849E-03 -5.5145E-03
      -5.7305E-03
   4   5.7469E-03  5.5274E-03  5.3046E-03  5.0794E-03  4.8525E-03  4.6243E-03  4.3953E-03  4.1656E-03  3.9354E-03  3.7050E-03
       3.4744E-03  3.2437E-03  3.0130E-03  2.7823E-03  2.5516E-03  2.3209E-03  2.0902E-03  1.8595E-03  1.6289E-03  1.3982E-03
       1.1675E-03  9.3685E-04  7.0619E-04  4.7552E-04  2.4486E-04  1.4202E-05 -2.1645E-04 -4.4711E-04 -6.7776E-04 -9.0841E-04
      -1.1391E-03 -1.3697E-03 -1.6004E-03 -1.8310E-03 -2.0616E-03 -2.2923E-03 -2.5229E-03 -2.7536E-03 -2.9842E-03 -3.2149E-03
      -3.4455E-03 -3.6762E-03 -3.9069E-03 -4.1376E-03 -4.3684E-03 -4.5991E-03 -4.8294E-03 -5.0589E-03 -5.2857E-03 -5.5065E-03
      -5.7137E-03
   5   5.7151E-03  5.5040E-03  5.2877E-03  5.0669E-03  4.8426E-03  4.6157E-03  4.3871E-03  4.1575E-03  3.9272E-03  3.6966E-03
       3.4658E-03  3.2351E-03  3.0043E-03  2.7736E-03  2.5428E-03  2.3121E-03  2.0814E-03  1.8508E-03  1.6201E-03  1.3894E-03
       1.1588E-03  9.2808E-04  6.9742E-04  4.6676E-04  2.3609E-04  5.4352E-06 -2.2522E-04 -4.5588E-04 -6.8653E-04 -9.1718E-04
      -1.1478E-03 -1.3785E-03 -1.6091E-03 -1.8398E-03 -2.0704E-03 -2.3011E-03 -2.5317E-03 -2.7624E-03 -2.9931E-03 -3.2238E-03
      -3.4545E-03 -3.6853E-03 -3.9161E-03 -4.1468E-03 -4.3772E-03 -4.6070E-03 -4.8354E-03 -5.0615E-03 -5.2833E-03 -5.4980E-03
      -5.7011E-03
   6   5.6960E-03  5.4905E-03  5.2779E-03  5.0593E-03  4.8361E-03  4.6096E-03  4.3810E-03  4.1512E-03  3.9208E-03  3.6900E-03
       3.4592E-03  3.2284E-03  2.9976E-03  2.7668E-03  2.5361E-03  2.3054E-03  2.0747E-03  1.8440E-03  1.6133E-03  1.3827E-03
       1.1520E-03  9.2133E-04  6.9066E-04  4.6000E-04  2.2934E-04 -1.3195E-06 -2.3198E-04 -4.6263E-04 -6.9328E-04 -9.2393E-04
      -1.1546E-03 -1.3852E-03 -1.6159E-03 -1.8465E-03 -2.0772E-03 -2.3078E-03 -2.5385E-03 -2.7692E-03 -2.9999E-03 -3.2306E-03
      -3.4614E-03 -3.6923E-03 -3.9230E-03 -4.1536E-03 -4.3837E-03 -4.6127E-03 -4.8397E-03 -5.0636E-03 -5.2825E-03 -5.4945E-03
      -5.6973E-03
   7   5.6890E-03  5.4863E-03  5.2742E-03  5.0553E-03  4.8315E-03  4.6044E-03  4.3754E-03  4.1453E-03  3.9147E-03  3.6839E-03
       3.4530E-03  3.2222E-03  2.9914E-03  2.7606E-03  2.5299E-03  2.2992E-03  2.0685E-03  1.8379E-03  1.6072E-03  1.3765E-03
       1.1458E-03  9.1517E-04  6.8451E-04  4.5385E-04  2.2319E-04 -7.4723E-06 -2.3813E-04 -4.6878E-04 -6.9944E-04 -9.3009E-04
      -1.1607E-03 -1.3914E-03 -1.6220E-03 -1.8527E-03 -2.0833E-03 -2.3140E-03 -2.5446E-03 -2.7753E-03 -3.0061E-03 -3.2368E-03
      -3.4676E-03 -3.6984E-03 -3.9291E-03 -4.1596E-03 -4.3893E-03 -4.6179E-03 -4.8444E-03 -5.0676E-03 -5.2862E-03 -5.4988E-03
      -5.7043E-03
   8   5.6929E-03  5.4898E-03  5.2751E-03  5.0532E-03  4.8272E-03  4.5987E-03  4.3689E-03  4.1384E-03  3.9077E-03  3.6769E-03
       3.4461E-03  3.2153E-03  2.9846E-03  2.7538E-03  2.5231E-03  2.2925E-03  2.0618E-03  1.8311E-03  1.6004E-03  1.3698E-03
       1.1391E-03  9.0842E-04  6.7776E-04  4.4709E-04  2.1643E-04 -1.4227E-05 -2.4488E-04 -4.7554E-04 -7.0619E-04 -9.3684E-04
      -1.1675E-03 -1.3981E-03 -1.6288E-03 -1.8594E-03 -2.0901E-03 -2.3207E-03 -2.5514E-03 -2.7821E-03 -3.0128E-03 -3.2435E-03
      -3.4743E-03 -3.7050E-03 -3.9355E-03 -4.1658E-03 -4.3955E-03 -4.6240E-03 -4.8509E-03 -5.0752E-03 -5.2960E-03 -5.5122E-03
      -5.7233E-03
   9   5.7055E-03  5.4982E-03  5.2775E-03  5.0506E-03  4.8212E-03  4.5908E-03  4.3600E-03  4.1293E-03  3.8985E-03  3.6678E-03
       3.4371E-03  3.2064E-03  2.9757E-03  2.7450E-03  2.5144E-03  2.2837E-03  2.0530E-03  1.8223E-03  1.5917E-03  1.3610E-03
       1.1303E-03  8.9965E-04  6.6899E-04  4.3833E-04  2.0767E-04 -2.2993E-05 -2.5365E-04 -4.8430E-04 -7.1496E-04 -9.4561E-04
      -1.1763E-03 -1.4069E-03 -1.6376E-03 -1.8682E-03 -2.0989E-03 -2.3295E-03 -2.5602E-03 -2.7908E-03 -3.0215E-03 -3.2522E-03
      -3.4828E-03 -3.7134E-03 -3.9438E-03 -4.1739E-03 -4.4036E-03 -4.6326E-03 -4.8607E-03 -5.0876E-03 -5.3128E-03 -5.5356E-03
      -5.7552E-03
  10   5.7223E-03  5.5062E-03  5.2766E-03  5.0436E-03  4.8105E-03  4.5782E-03  4.3467E-03  4.1157E-03  3.8849E-03  3.6543E-03
       3.4237E-03  3.1932E-03  2.9625E-03  2.7319E-03  2.5013E-03  2.2706E-03  2.0399E-03  1.8093E-03  1.5786E-03  1.3479E-03
       1.1172E-03  8.8658E-04  6.5591E-04  4.2525E-04  1.9459E-04 -3.6071E-05 -2.6673E-04 -4.9738E-04 -7.2804E-04 -9.5869E-04
      -1.1893E-03 -1.4200E-03 -1.6506E-03 -1.8813E-03 -2.1119E-03 -2.3426E-03 -2.5732E-03 -2.8039E-03 -3.0345E-03 -3.2651E-03
      -3.4956E-03 -3.7260E-03 -3.9562E-03 -4.1863E-03 -4.4162E-03 -4.6461E-03 -4.8761E-03 -5.1066E-03 -5.3378E-03 -5.5695E-03
      -5.8006E-03
  11   5.7324E-03  5.5027E-03  5.2637E-03  5.0252E-03  4.7891E-03  4.5555E-03  4.3234E-03  4.0922E-03  3.8616E-03  3.6311E-03
       3.4006E-03  3.1701E-03  2.9396E-03  2.7090E-03  2.4784E-03  2.2477E-03  2.0170E-03  1.7864E-03  1.5557E-03  1.3250E-03
       1.0943E-03  8.6368E-04  6.3301E-04  4.0235E-04  1.7169E-04 -5.8970E-05 -2.8963E-04 -5.2028E-04 -7.5093E-04 -9.8159E-04
      -1.2122E-03 -1.4429E-03 -1.6735E-03 -1.9042E-03 -2.1348E-03 -2.3655E-03 -2.5961E-03 -2.8267E-03 -3.0573E-03 -3.2878E-03
      -3.5182E-03 -3.7484E-03 -3.9786E-03 -4.2087E-03 -4.4390E-03 -4.6699E-03 -4.9021E-03 -5.1368E-03 -5.3748E-03 -5.6169E-03
      -5.8618E-03
  12   5.6997E-03  5.4599E-03  5.2150E-03  4.9737E-03  4.7364E-03  4.5022E-03  4.2700E-03  4.0389E-03  3.8083E-03  3.5779E-03
       3.3475E-03  3.1171E-03  2.8866E-03  2.6560E-03  2.4254E-03  2.1947E-03  1.9641E-03  1.7334E-03  1.5027E-03  1.2721E-03
       1.0414E-03  8.1072E-04  5.8006E-04  3.4940E-04  1.1874E-04 -1.1192E-04 -3.4258E-04 -5.7323E-04 -8.0389E-04 -1.0345E-03
      -1.2652E-03 -1.4958E-03 -1.7265E-03 -1.9571E-03 -2.1878E-03 -2.4184E-03 -2.6490E-03 -2.8796E-03 -3.1101E-03 -3.3405E-03
      -3.5708E-03 -3.8010E-03 -4.0311E-03 -4.2614E-03 -4.4922E-03 -4.7244E-03 -4.9591E-03 -5.1977E-03 -5.4420E-03 -5.6927E-03
      -5.9477E-03
1
  HEAD IN LAYER   6 AT END OF TIME STEP   1 IN STRESS PERIOD    1
  ---------------------------------------------------------------------------

            1           2           3           4           5           6           7           8           9          10
           11          12          13          14          15          16          17          18          19          20
           21          22          23          24          25          26          27          28          29          30
           31          32          33          34          35          36          37          38          39          40
           41          42          43          44          45          46          47          48          49          50
           51
 ....................................................................................................................................................................................................................................................................................................................................................................................................................................................................................................................................................................................................................................
   1   5.6997E-03  5.4599E-03  5.2150E-03  4.9737E-03  4.7364E-03  4.5022E-03  4.2700E-03  4.0389E-03  3.8083E-03  3.5779E-03
       3.3475E-03  3.1171E-03  2.8866E-03  2.6560E-03  2.4254E-03  2.1947E-03  1.9641E-03  1.7334E-03  1.5027E-03  1.2721E-03
       1.0414E-03  8.1072E-04  5.8006E-04  3.4939E-04  1.1873E-04 -1.1193E-04 -3.4258E-04 -5.7324E-04 -8.0389E-04 -1.0345E-03
      -1.2652E-03 -1.4958E-03 -1.7265E-03 -1.9572E-03 -2.1878E-03 -2.4184E-03 -2.6490E-03 -2.8796E-03 -3.1101E-03 -3.3405E-03
      -3.5708E-03 -3.8010E-03 -4.0311E-03 -4.2614E-03 -4.4923E-03 -4.7244E-03 -4.9591E-03 -5.1977E-03 -5.4420E-03 -5.6927E-03
      -5.9477E-03
   2   5.7324E-03  5.5027E-03  5.2637E-03  5.0251E-03  4.7891E-03  4.5554E-03  4.3234E-03  4.0922E-03  3.8616E-03  3.6311E-03
       3.4006E-03  3.1701E-03  2.9396E-03  2.7090E-03  2.4784E-03  2.2477E-03  2.0170E-03  1.7864E-03  1.5557E-03  1.3250E-03
       1.0943E-03  8.6368E-04  6.3301E-04  4.0235E-04  1.7169E-04 -5.8972E-05 -2.8963E-04 -5.2028E-04 -7.5094E-04 -9.8159E-04
      -1.2122E-03 -1.4429E-03 -1.6735E-03 -1.9042E-03 -2.1348E-03 -2.3655E-03 -2.5961E-03 -2.8267E-03 -3.0573E-03 -3.2878E-03
      -3.5182E-03 -3.7484E-03 -3.9786E-03 -4.2087E-03 -4.4390E-03 -4.6699E-03 -4.9022E-03 -5.1368E-03 -5.3748E-03 -5.6169E-03
      -5.8618E-03
   3   5.7223E-03  5.5062E-03  5.2766E-03  5.0436E-03  4.8105E-03  4.5782E-03  4.3467E-03  4.1156E-03  3.8849E-03  3.6543E-03
       3.4237E-03  3.1932E-03  2.9625E-03  2.7319E-03  2.5013E-03  2.2706E-03  2.0399E-03  1.8093E-03  1.5786E-03  1.3479E-03
       1.1172E-03  8.8658E-04  6.5591E-04  4.2525E-04  1.9459E-04 -3.6072E-05 -2.6673E-04 -4.9738E-04 -7.2804E-04 -9.5869E-04
      -1.1893E-03 -1.4200E-03 -1.6506E-03 -1.8813E-03 -2.1119E-03 -2.3426E-03 -2.5732E-03 -2.8039E-03 -3.0345E-03 -3.2651E-03
      -3.4956E-03 -3.7260E-03 -3.9562E-03 -4.1863E-03 -4.4162E-03 -4.6461E-03 -4.8761E-03 -5.1066E-03 -5.3378E-03 -5.5696E-03
      -5.8006E-03
   4   5.7055E-03  5.4982E-03  5.2775E-03  5.0506E-03  4.8212E-03  4.5907E-03  4.3600E-03  4.1293E-03  3.8985E-03  3.6678E-03
       3.4371E-03  3.2064E-03  2.9757E-03  2.7450E-03  2.5144E-03  2.2837E-03  2.0530E-03  1.8223E-03  1.5917E-03  1.3610E-03
       1.1303E-03  8.9965E-04  6.6899E-04  4.3833E-04  2.0766E-04 -2.2994E-05 -2.5365E-04 -4.8431E-04 -7.1496E-04 -9.4561E-04
      -1.1763E-03 -1.4069E-03 -1.6376E-03 -1.8682E-03 -2.0989E-03 -2.3295E-03 -2.5602E-03 -2.7908E-03 -3.0215E-03 -3.2522E-03
      -3.4828E-03 -3.7134E-03 -3.9438E-03 -4.1739E-03 -4.4036E-03 -4.6326E-03 -4.8608E-03 -5.0876E-03 -5.3128E-03 -5.5356E-03
      -5.7552E-03
   5   5.6929E-03  5.4898E-03  5.2751E-03  5.0532E-03  4.8272E-03  4.5987E-03  4.3689E-03  4.1384E-03  3.9077E-03  3.6769E-03
       3.4461E-03  3.2153E-03  2.9846E-03  2.7538E-03  2.5231E-03  2.2925E-03  2.0618E-03  1.8311E-03  1.6004E-03  1.3698E-03
       1.1391E-03  9.0842E-04  6.7776E-04  4.4709E-04  2.1643E-04 -1.4227E-05 -2.4488E-04 -4.7554E-04 -7.0619E-04 -9.3684E-04
      -1.1675E-03 -1.3981E-03 -1.6288E-03 -1.8594E-03 -2.0901E-03 -2.3207E-03 -2.5514E-03 -2.7821E-03 -3.0128E-03 -3.2435E-03
      -3.4743E-03 -3.7050E-03 -3.9356E-03 -4.1658E-03 -4.3955E-03 -4.6240E-03 -4.8509E-03 -5.0752E-03 -5.2960E-03 -5.5122E-03
      -5.7233E-03
   6   5.6890E-03  5.4863E-03  5.2742E-03  5.0553E-03  4.8315E-03  4.6044E-03  4.3754E-03  4.1453E-03  3.9147E-03  3.6839E-03
       3.4530E-03  3.2222E-03  2.9914E-03  2.7606E-03  2.5299E-03  2.2992E-03  2.0685E-03  1.8379E-03  1.6072E-03  1.3765E-03
       1.1458E-03  9.1518E-04  6.8451E-04  4.5385E-04  2.2319E-04 -7.4717E-06 -2.3813E-04 -4.6878E-04 -6.9944E-04 -9.3009E-04
      -1.1607E-03 -1.3914E-03 -1.6220E-03 -1.8527E-03 -2.0833E-03 -2.3140E-03 -2.5446E-03 -2.7753E-03 -3.0061E-03 -3.2368E-03
      -3.4676E-03 -3.6984E-03 -3.9291E-03 -4.1596E-03 -4.3894E-03 -4.6179E-03 -4.8444E-03 -5.0676E-03 -5.2862E-03 -5.4988E-03
      -5.7043E-03
   7   5.6960E-03  5.4905E-03  5.2779E-03  5.0593E-03  4.8361E-03  4.6096E-03  4.3810E-03  4.1512E-03  3.9208E-03  3.6900E-03
       3.4592E-03  3.2284E-03  2.9976E-03  2.7668E-03  2.5361E-03  2.3054E-03  2.0747E-03  1.8440E-03  1.6133E-03  1.3827E-03
       1.1520E-03  9.2133E-04  6.9066E-04  4.6000E-04  2.2934E-04 -1.3183E-06 -2.3197E-04 -4.6263E-04 -6.9328E-04 -9.2393E-04
      -1.1546E-03 -1.3852E-03 -1.6159E-03 -1.8465E-03 -2.0772E-03 -2.3078E-03 -2.5385E-03 -2.7692E-03 -2.9999E-03 -3.2306E-03
      -3.4614E-03 -3.6923E-03 -3.9230E-03 -4.1536E-03 -4.3837E-03 -4.6127E-03 -4.8397E-03 -5.0636E-03 -5.2825E-03 -5.4945E-03
      -5.6973E-03
   8   5.7151E-03  5.5040E-03  5.2877E-03  5.0669E-03  4.8426E-03  4.6157E-03  4.3871E-03  4.1575E-03  3.9272E-03  3.6966E-03
       3.4658E-03  3.2351E-03  3.0043E-03  2.7736E-03  2.5428E-03  2.3121E-03  2.0814E-03  1.8508E-03  1.6201E-03  1.3894E-03
       1.1588E-03  9.2808E-04  6.9742E-04  4.6676E-04  2.3610E-04  5.4371E-06 -2.2522E-04 -4.5587E-04 -6.8653E-04 -9.1718E-04
      -1.1478E-03 -1.3785E-03 -1.6091E-03 -1.8398E-03 -2.0704E-03 -2.3011E-03 -2.5317E-03 -2.7624E-03 -2.9931E-03 -3.2238E-03
      -3.4545E-03 -3.6853E-03 -3.9161E-03 -4.1468E-03 -4.3772E-03 -4.6070E-03 -4.8354E-03 -5.0615E-03 -5.2833E-03 -5.4980E-03
      -5.7011E-03
   9   5.7469E-03  5.5274E-03  5.3046E-03  5.0794E-03  4.8525E-03  4.6243E-03  4.3953E-03  4.1656E-03  3.9354E-03  3.7050E-03
       3.4744E-03  3.2437E-03  3.0130E-03  2.7823E-03  2.5516E-03  2.3209E-03  2.0902E-03  1.8595E-03  1.6289E-03  1.3982E-03
       1.1675E-03  9.3685E-04  7.0619E-04  4.7552E-04  2.4486E-04  1.4205E-05 -2.1645E-04 -4.4711E-04 -6.7776E-04 -9.0841E-04
      -1.1391E-03 -1.3697E-03 -1.6004E-03 -1.8310E-03 -2.0616E-03 -2.2923E-03 -2.5229E-03 -2.7536E-03 -2.9842E-03 -3.2149E-03
      -3.4455E-03 -3.6762E-03 -3.9069E-03 -4.1376E-03 -4.3684E-03 -4.5990E-03 -4.8294E-03 -5.0589E-03 -5.2857E-03 -5.5065E-03
      -5.7137E-03
  10   5.7924E-03  5.5613E-03  5.3296E-03  5.0983E-03  4.8678E-03  4.6378E-03  4.4079E-03  4.1780E-03  3.9479E-03  3.7176E-03
       3.4872E-03  3.2566E-03  3.0260E-03  2.7954E-03  2.5647E-03  2.3340E-03  2.1033E-03  1.8726E-03  1.6419E-03  1.4113E-03
       1.1806E-03  9.4993E-04  7.1927E-04  4.8860E-04  2.5794E-04  2.7284E-05 -2.0337E-04 -4.3403E-04 -6.6468E-04 -8.9533E-04
      -1.1260E-03 -1.3566E-03 -1.5873E-03 -1.8179E-03 -2.0486E-03 -2.2792E-03 -2.5098E-03 -2.7405E-03 -2.9711E-03 -3.2016E-03
      -3.4322E-03 -3.6627E-03 -3.8933E-03 -4.1240E-03 -4.3550E-03 -4.5865E-03 -4.8188E-03 -5.0518E-03 -5.2848E-03 -5.5145E-03
      -5.7305E-03
  11   5.8536E-03  5.6086E-03  5.3666E-03  5.1285E-03  4.8939E-03  4.6616E-03  4.4307E-03  4.2003E-03  3.9702E-03  3.7400E-03
       3.5097E-03  3.2793E-03  3.0488E-03  2.8182E-03  2.5876E-03  2.3569E-03  2.1262E-03  1.8955E-03  1.6649E-03  1.4342E-03
       1.2035E-03  9.7284E-04  7.4217E-04  5.1151E-04  2.8084E-04  5.0185E-05 -1.8047E-04 -4.1113E-04 -6.4178E-04 -8.7244E-04
      -1.1031E-03 -1.3337E-03 -1.5644E-03 -1.7950E-03 -2.0257E-03 -2.2563E-03 -2.4869E-03 -2.7175E-03 -2.9481E-03 -3.1786E-03
      -3.4090E-03 -3.6395E-03 -3.8699E-03 -4.1006E-03 -4.3317E-03 -4.5637E-03 -4.7974E-03 -5.0334E-03 -5.2719E-03 -5.5109E-03
      -5.7407E-03
  12   5.9395E-03  5.6844E-03  5.4338E-03  5.1895E-03  4.9508E-03  4.7162E-03  4.4839E-03  4.2531E-03  4.0227E-03  3.7926E-03
       3.5624E-03  3.3321E-03  3.1016E-03  2.8711E-03  2.6405E-03  2.4098E-03  2.1792E-03  1.9485E-03  1.7178E-03  1.4871E-03
       1.2565E-03  1.0258E-03  7.9513E-04  5.6446E-04  3.3380E-04  1.0314E-04 -1.2752E-04 -3.5817E-04 -5.8883E-04 -8.1948E-04
      -1.0501E-03 -1.2808E-03 -1.5114E-03 -1.7421E-03 -1.9727E-03 -2.2034E-03 -2.4340E-03 -2.6646E-03 -2.8951E-03 -3.1256E-03
      -3.3560E-03 -3.5863E-03 -3.8167E-03 -4.0473E-03 -4.2784E-03 -4.5105E-03 -4.7447E-03 -4.9819E-03 -5.2233E-03 -5.4681E-03
      -5.7080E-03
1
  HEAD IN LAYER   7 AT END OF TIME STEP   1 IN STRESS PERIOD    1
  ---------------------------------------------------------------------------

            1           2           3           4           5           6           7           8           9          10
           11          12          13          14          15          16          17          18          19          20
           21          22          23          24          25          26          27          28          29          30
           31          32          33          34          35          36          37          38          39          40
           41          42          43          44          45          46          47          48          49          50
           51
 ....................................................................................................................................................................................................................................................................................................................................................................................................................................................................................................................................................................................................................................
   1   5.5626E-03  5.3183E-03  5.0741E-03  4.8336E-03  4.5968E-03  4.3627E-03  4.1304E-03  3.8991E-03  3.6683E-03  3.4378E-03
       3.2073E-03  2.9768E-03  2.7462E-03  2.5156E-03  2.2850E-03  2.0543E-03  1.8237E-03  1.5930E-03  1.3623E-03  1.1317E-03
       9.0099E-04  6.7033E-04  4.3966E-04  2.0900E-04 -2.1658E-05 -2.5232E-04 -4.8297E-04 -7.1362E-04 -9.4428E-04 -1.1749E-03
      -1.4056E-03 -1.6362E-03 -1.8669E-03 -2.0975E-03 -2.3282E-03 -2.5588E-03 -2.7894E-03 -3.0200E-03 -3.2505E-03 -3.4808E-03
      -3.7110E-03 -3.9409E-03 -4.1708E-03 -4.4007E-03 -4.6312E-03 -4.8632E-03 -5.0983E-03 -5.3388E-03 -5.5878E-03 -5.8490E-03
      -6.1260E-03
   2   5.6481E-03  5.4146E-03  5.1749E-03  4.9358E-03  4.6990E-03  4.4646E-03  4.2319E-03  4.0003E-03  3.7693E-03  3.5386E-03
       3.3080E-03  3.0775E-03  2.8469E-03  2.6163E-03  2.3857E-03  2.1551E-03  1.9244E-03  1.6937E-03  1.4631E-03  1.2324E-03
       1.0017E-03  7.7105E-04  5.4038E-04  3.0972E-04  7.9061E-05 -1.5160E-04 -3.8225E-04 -6.1291E-04 -8.4356E-04 -1.0742E-03
      -1.3049E-03 -1.5355E-03 -1.7662E-03 -1.9968E-03 -2.2275E-03 -2.4581E-03 -2.6888E-03 -2.9194E-03 -3.1499E-03 -3.3804E-03
      -3.6107E-03 -3.8408E-03 -4.0706E-03 -4.3002E-03 -4.5299E-03 -4.7600E-03 -4.9915E-03 -5.2261E-03 -5.4661E-03 -5.7153E-03
      -5.9790E-03
   3   5.6732E-03  5.4558E-03  5.2254E-03  4.9910E-03  4.7564E-03  4.5228E-03  4.2902E-03  4.0585E-03  3.8273E-03  3.5965E-03
       3.3658E-03  3.1352E-03  2.9045E-03  2.6739E-03  2.4433E-03  2.2126E-03  1.9820E-03  1.7513E-03  1.5206E-03  1.2900E-03
       1.0593E-03  8.2862E-04  5.9796E-04  3.6730E-04  1.3663E-04 -9.4024E-05 -3.2468E-04 -5.5533E-04 -7.8599E-04 -1.0166E-03
      -1.2473E-03 -1.4779E-03 -1.7086E-03 -1.9392E-03 -2.1699E-03 -2.4006E-03 -2.6312E-03 -2.8619E-03 -3.0925E-03 -3.3231E-03
      -3.5536E-03 -3.7838E-03 -4.0138E-03 -4.2434E-03 -4.4725E-03 -4.7012E-03 -4.9299E-03 -5.1594E-03 -5.3912E-03 -5.6277E-03
      -5.8738E-03
   4   5.6778E-03  5.4706E-03  5.2496E-03  5.0215E-03  4.7905E-03  4.5586E-03  4.3268E-03  4.0953E-03  3.8641E-03  3.6331E-03
       3.4023E-03  3.1715E-03  2.9408E-03  2.7102E-03  2.4795E-03  2.2488E-03  2.0182E-03  1.7875E-03  1.5568E-03  1.3262E-03
       1.0955E-03  8.6483E-04  6.3416E-04  4.0350E-04  1.7284E-04 -5.7820E-05 -2.8848E-04 -5.1913E-04 -7.4978E-04 -9.8043E-04
      -1.2111E-03 -1.4417E-03 -1.6724E-03 -1.9030E-03 -2.1337E-03 -2.3644E-03 -2.5950E-03 -2.8257E-03 -3.0564E-03 -3.2871E-03
      -3.5177E-03 -3.7482E-03 -3.9784E-03 -4.2081E-03 -4.4371E-03 -4.6651E-03 -4.8919E-03 -5.1175E-03 -5.3426E-03 -5.5686E-03
      -5.7993E-03
   5   5.6798E-03  5.4763E-03  5.2617E-03  5.0392E-03  4.8120E-03  4.5824E-03  4.3517E-03  4.1206E-03  3.8895E-03  3.6585E-03
       3.4275E-03  3.1967E-03  2.9660E-03  2.7352E-03  2.5046E-03  2.2739E-03  2.0432E-03  1.8125E-03  1.5819E-03  1.3512E-03
       1.1205E-03  8.8986E-04  6.5920E-04  4.2854E-04  1.9788E-04 -3.2783E-05 -2.6344E-04 -4.9409E-04 -7.2475E-04 -9.5540E-04
      -1.1860E-03 -1.4167E-03 -1.6473E-03 -1.8780E-03 -2.1086E-03 -2.3393E-03 -2.5700E-03 -2.8007E-03 -3.0314E-03 -3.2622E-03
      -3.4929E-03 -3.7236E-03 -3.9541E-03 -4.1841E-03 -4.4133E-03 -4.6412E-03 -4.8671E-03 -5.0904E-03 -5.3110E-03 -5.5293E-03
      -5.7479E-03
   6   5.6877E-03  5.4830E-03  5.2707E-03  5.0516E-03  4.8274E-03  4.5998E-03  4.3704E-03  4.1399E-03  3.9091E-03  3.6782E-03
       3.4472E-03  3.2164E-03  2.9855E-03  2.7548E-03  2.5241E-03  2.2934E-03  2.0627E-03  1.8320E-03  1.6014E-03  1.3707E-03
       1.1400E-03  9.0935E-04  6.7869E-04  4.4803E-04  2.1737E-04 -1.3293E-05 -2.4395E-04 -4.7460E-04 -7.0526E-04 -9.3591E-04
      -1.1666E-03 -1.3972E-03 -1.6278E-03 -1.8585E-03 -2.0891E-03 -2.3198E-03 -2.5505E-03 -2.7812E-03 -3.0119E-03 -3.2427E-03
      -3.4735E-03 -3.7043E-03 -3.9351E-03 -4.1655E-03 -4.3952E-03 -4.6236E-03 -4.8498E-03 -5.0726E-03 -5.2911E-03 -5.5047E-03
      -5.7147E-03
   7   5.7064E-03  5.4965E-03  5.2829E-03  5.0644E-03  4.8415E-03  4.6153E-03  4.3869E-03  4.1572E-03  3.9267E-03  3.6959E-03
       3.4651E-03  3.2342E-03  3.0034E-03  2.7726E-03  2.5419E-03  2.3112E-03  2.0805E-03  1.8498E-03  1.6192E-03  1.3885E-03
       1.1578E-03  9.2715E-04  6.9649E-04  4.6582E-04  2.3516E-04  4.5044E-06 -2.2615E-04 -4.5681E-04 -6.8746E-04 -9.1811E-04
      -1.1488E-03 -1.3794E-03 -1.6100E-03 -1.8407E-03 -2.0713E-03 -2.3020E-03 -2.5326E-03 -2.7633E-03 -2.9940E-03 -3.2248E-03
      -3.4557E-03 -3.6866E-03 -3.9175E-03 -4.1483E-03 -4.3787E-03 -4.6081E-03 -4.8356E-03 -5.0598E-03 -5.2789E-03 -5.4912E-03
      -5.6959E-03
   8   5.7396E-03  5.5211E-03  5.3027E-03  5.0822E-03  4.8588E-03  4.6329E-03  4.4050E-03  4.1758E-03  3.9457E-03  3.7152E-03
       3.4845E-03  3.2537E-03  3.0229E-03  2.7922E-03  2.5614E-03  2.3307E-03  2.1000E-03  1.8693E-03  1.6387E-03  1.4080E-03
       1.1773E-03  9.4664E-04  7.1598E-04  4.8531E-04  2.5465E-04  2.3994E-05 -2.0666E-04 -4.3732E-04 -6.6797E-04 -8.9862E-04
      -1.1293E-03 -1.3599E-03 -1.5906E-03 -1.8212E-03 -2.0518E-03 -2.2825E-03 -2.5131E-03 -2.7438E-03 -2.9745E-03 -3.2052E-03
      -3.4360E-03 -3.6669E-03 -3.8979E-03 -4.1289E-03 -4.3600E-03 -4.5907E-03 -4.8203E-03 -5.0474E-03 -5.2699E-03 -5.4846E-03
      -5.6880E-03
   9   5.7910E-03  5.5604E-03  5.3343E-03  5.1092E-03  4.8836E-03  4.6568E-03  4.4288E-03  4.1998E-03  3.9700E-03  3.7398E-03
       3.5093E-03  3.2786E-03  3.0479E-03  2.8172E-03  2.5865E-03  2.3558E-03  2.1251E-03  1.8944E-03  1.6637E-03  1.4330E-03
       1.2023E-03  9.7168E-04  7.4101E-04  5.1035E-04  2.7969E-04  4.9031E-05 -1.8163E-04 -4.1228E-04 -6.4294E-04 -8.7359E-04
      -1.1042E-03 -1.3349E-03 -1.5655E-03 -1.7962E-03 -2.0268E-03 -2.2574E-03 -2.4881E-03 -2.7187E-03 -2.9493E-03 -3.1800E-03
      -3.4107E-03 -3.6415E-03 -3.8724E-03 -4.1036E-03 -4.3351E-03 -4.5669E-03 -4.7988E-03 -5.0298E-03 -5.2579E-03 -5.4788E-03
      -5.6861E-03
  10   5.8655E-03  5.6195E-03  5.3829E-03  5.1512E-03  4.9216E-03  4.6929E-03  4.4642E-03  4.2350E-03  4.0054E-03  3.7754E-03
       3.5451E-03  3.3146E-03  3.0840E-03  2.8534E-03  2.6227E-03  2.3920E-03  2.1613E-03  1.9306E-03  1.6999E-03  1.4692E-03
       1.2386E-03  1.0079E-03  7.7722E-04  5.4656E-04  3.1590E-04  8.5236E-05 -1.4542E-04 -3.7608E-04 -6.0673E-04 -8.3738E-04
      -1.0680E-03 -1.2987E-03 -1.5293E-03 -1.7600E-03 -1.9906E-03 -2.2212E-03 -2.4519E-03 -2.6825E-03 -2.9131E-03 -3.1436E-03
      -3.3742E-03 -3.6049E-03 -3.8357E-03 -4.0669E-03 -4.2985E-03 -4.5311E-03 -4.7647E-03 -4.9993E-03 -5.2337E-03 -5.4640E-03
      -5.6814E-03
  11   5.9708E-03  5.7070E-03  5.4579E-03  5.2178E-03  4.9832E-03  4.7517E-03  4.5216E-03  4.2919E-03  4.0623E-03  3.8324E-03
       3.6023E-03  3.3719E-03  3.1415E-03  2.9109E-03  2.6802E-03  2.4495E-03  2.2189E-03  1.9882E-03  1.7575E-03  1.5268E-03
       1.2961E-03  1.0655E-03  8.3480E-04  6.0413E-04  3.7347E-04  1.4281E-04 -8.7848E-05 -3.1850E-04 -5.4916E-04 -7.7981E-04
      -1.0105E-03 -1.2411E-03 -1.4718E-03 -1.7024E-03 -1.9330E-03 -2.1637E-03 -2.3943E-03 -2.6249E-03 -2.8554E-03 -3.0860E-03
      -3.3165E-03 -3.5470E-03 -3.7777E-03 -4.0087E-03 -4.2402E-03 -4.4729E-03 -4.7073E-03 -4.9440E-03 -5.1832E-03 -5.4229E-03
      -5.6563E-03
  12   6.1178E-03  5.8408E-03  5.5796E-03  5.3305E-03  5.0900E-03  4.8549E-03  4.6229E-03  4.3924E-03  4.1624E-03  3.9326E-03
       3.7026E-03  3.4724E-03  3.2420E-03  3.0115E-03  2.7809E-03  2.5503E-03  2.3196E-03  2.0889E-03  1.8582E-03  1.6275E-03
       1.3969E-03  1.1662E-03  9.3552E-04  7.0486E-04  4.7419E-04  2.4353E-04  1.2873E-05 -2.1778E-04 -4.4844E-04 -6.7909E-04
      -9.0975E-04 -1.1404E-03 -1.3710E-03 -1.6017E-03 -1.8323E-03 -2.0630E-03 -2.2936E-03 -2.5242E-03 -2.7547E-03 -2.9853E-03
      -3.2157E-03 -3.4462E-03 -3.6767E-03 -3.9075E-03 -4.1387E-03 -4.3710E-03 -4.6051E-03 -4.8419E-03 -5.0824E-03 -5.3265E-03
      -5.5709E-03
1
  HEAD IN LAYER   8 AT END OF TIME STEP   1 IN STRESS PERIOD    1
  ---------------------------------------------------------------------------

            1           2           3           4           5           6           7           8           9          10
           11          12          13          14          15          16          17          18          19          20
           21          22          23          24          25          26          27          28          29          30
           31          32          33          34          35          36          37          38          39          40
           41          42          43          44          45          46          47          48          49          50
           51
 ....................................................................................................................................................................................................................................................................................................................................................................................................................................................................................................................................................................................................................................
   1   5.4795E-03  5.2283E-03  4.9828E-03  4.7422E-03  4.5055E-03  4.2713E-03  4.0389E-03  3.8075E-03  3.5766E-03  3.3459E-03
       3.1153E-03  2.8848E-03  2.6542E-03  2.4236E-03  2.1930E-03  1.9623E-03  1.7317E-03  1.5010E-03  1.2703E-03  1.0397E-03
       8.0900E-04  5.7833E-04  3.4767E-04  1.1701E-04 -1.1365E-04 -3.4431E-04 -5.7496E-04 -8.0561E-04 -1.0363E-03 -1.2669E-03
      -1.4976E-03 -1.7282E-03 -1.9589E-03 -2.1895E-03 -2.4202E-03 -2.6508E-03 -2.8814E-03 -3.1120E-03 -3.3424E-03 -3.5727E-03
      -3.8027E-03 -4.0325E-03 -4.2621E-03 -4.4917E-03 -4.7218E-03 -4.9537E-03 -5.1894E-03 -5.4320E-03 -5.6861E-03 -5.9577E-03
      -6.2528E-03
   2   5.5914E-03  5.3511E-03  5.1091E-03  4.8690E-03  4.6317E-03  4.3968E-03  4.1638E-03  3.9319E-03  3.7007E-03  3.4699E-03
       3.2392E-03  3.0086E-03  2.7780E-03  2.5474E-03  2.3168E-03  2.0861E-03  1.8555E-03  1.6248E-03  1.3942E-03  1.1635E-03
       9.3282E-04  7.0215E-04  4.7149E-04  2.4083E-04  1.0167E-05 -2.2049E-04 -4.5115E-04 -6.8180E-04 -9.1245E-04 -1.1431E-03
      -1.3738E-03 -1.6044E-03 -1.8351E-03 -2.0657E-03 -2.2964E-03 -2.5270E-03 -2.7577E-03 -2.9883E-03 -3.2189E-03 -3.4493E-03
      -3.6795E-03 -3.9094E-03 -4.1390E-03 -4.3683E-03 -4.5974E-03 -4.8269E-03 -5.0582E-03 -5.2933E-03 -5.5362E-03 -5.7927E-03
      -6.0720E-03
   3   5.6394E-03  5.4168E-03  5.1842E-03  4.9484E-03  4.7127E-03  4.4782E-03  4.2450E-03  4.0129E-03  3.7815E-03  3.5504E-03
       3.3196E-03  3.0890E-03  2.8583E-03  2.6277E-03  2.3971E-03  2.1664E-03  1.9358E-03  1.7051E-03  1.4744E-03  1.2438E-03
       1.0131E-03  7.8242E-04  5.5176E-04  3.2110E-04  9.0435E-05 -1.4022E-04 -3.7088E-04 -6.0153E-04 -8.3218E-04 -1.0628E-03
      -1.2935E-03 -1.5241E-03 -1.7548E-03 -1.9854E-03 -2.2161E-03 -2.4468E-03 -2.6775E-03 -2.9081E-03 -3.1388E-03 -3.3693E-03
      -3.5997E-03 -3.8299E-03 -4.0597E-03 -4.2889E-03 -4.5174E-03 -4.7455E-03 -4.9735E-03 -5.2028E-03 -5.4359E-03 -5.6775E-03
      -5.9361E-03
   4   5.6595E-03  5.4488E-03  5.2262E-03  4.9969E-03  4.7647E-03  4.5319E-03  4.2993E-03  4.0672E-03  3.8357E-03  3.6045E-03
       3.3736E-03  3.1428E-03  2.9121E-03  2.6814E-03  2.4508E-03  2.2201E-03  1.9895E-03  1.7588E-03  1.5281E-03  1.2975E-03
       1.0668E-03  8.3614E-04  6.0548E-04  3.7482E-04  1.4416E-04 -8.6503E-05 -3.1716E-04 -5.4781E-04 -7.7846E-04 -1.0091E-03
      -1.2398E-03 -1.4704E-03 -1.7011E-03 -1.9317E-03 -2.1624E-03 -2.3931E-03 -2.6237E-03 -2.8544E-03 -3.0852E-03 -3.3158E-03
      -3.5464E-03 -3.7769E-03 -4.0069E-03 -4.2364E-03 -4.4649E-03 -4.6922E-03 -4.9183E-03 -5.1434E-03 -5.3691E-03 -5.5986E-03
      -5.8385E-03
   5   5.6722E-03  5.4660E-03  5.2503E-03  5.0270E-03  4.7990E-03  4.5686E-03  4.3373E-03  4.1057E-03  3.8743E-03  3.6431E-03
       3.4121E-03  3.1812E-03  2.9504E-03  2.7197E-03  2.4890E-03  2.2584E-03  2.0277E-03  1.7970E-03  1.5664E-03  1.3357E-03
       1.1050E-03  8.7436E-04  6.4369E-04  4.1303E-04  1.8237E-04 -4.8289E-05 -2.7894E-04 -5.0960E-04 -7.4025E-04 -9.7090E-04
      -1.2015E-03 -1.4322E-03 -1.6628E-03 -1.8935E-03 -2.1242E-03 -2.3548E-03 -2.5855E-03 -2.8162E-03 -3.0470E-03 -3.2777E-03
      -3.5085E-03 -3.7392E-03 -3.9696E-03 -4.1995E-03 -4.4285E-03 -4.6560E-03 -4.8814E-03 -5.1043E-03 -5.3250E-03 -5.5455E-03
      -5.7706E-03
   6   5.6891E-03  5.4812E-03  5.2680E-03  5.0485E-03  4.8240E-03  4.5961E-03  4.3663E-03  4.1356E-03  3.9045E-03  3.6734E-03
       3.4424E-03  3.2115E-03  2.9807E-03  2.7499E-03  2.5192E-03  2.2885E-03  2.0578E-03  1.8271E-03  1.5965E-03  1.3658E-03
       1.1351E-03  9.0446E-04  6.7380E-04  4.4314E-04  2.1247E-04 -1.8184E-05 -2.4884E-04 -4.7950E-04 -7.1015E-04 -9.4080E-04
      -1.1714E-03 -1.4021E-03 -1.6327E-03 -1.8634E-03 -2.0940E-03 -2.3247E-03 -2.5554E-03 -2.7861E-03 -3.0168E-03 -3.2476E-03
      -3.4785E-03 -3.7094E-03 -3.9402E-03 -4.1706E-03 -4.4004E-03 -4.6288E-03 -4.8548E-03 -5.0775E-03 -5.2962E-03 -5.5112E-03
      -5.7255E-03
   7   5.7173E-03  5.5029E-03  5.2879E-03  5.0693E-03  4.8466E-03  4.6205E-03  4.3921E-03  4.1623E-03  3.9318E-03  3.7010E-03
       3.4701E-03  3.2392E-03  3.0083E-03  2.7775E-03  2.5468E-03  2.3161E-03  2.0854E-03  1.8547E-03  1.6240E-03  1.3934E-03
       1.1627E-03  9.3204E-04  7.0138E-04  4.7072E-04  2.4006E-04  9.3964E-06 -2.2126E-04 -4.5192E-04 -6.8257E-04 -9.1322E-04
      -1.1439E-03 -1.3745E-03 -1.6052E-03 -1.8358E-03 -2.0664E-03 -2.2971E-03 -2.5277E-03 -2.7584E-03 -2.9892E-03 -3.2200E-03
      -3.4508E-03 -3.6818E-03 -3.9129E-03 -4.1439E-03 -4.3746E-03 -4.6044E-03 -4.8322E-03 -5.0568E-03 -5.2762E-03 -5.4895E-03
      -5.6973E-03
   8   5.7624E-03  5.5373E-03  5.3168E-03  5.0960E-03  4.8731E-03  4.6477E-03  4.4202E-03  4.1912E-03  3.9612E-03  3.7308E-03
       3.5001E-03  3.2693E-03  3.0385E-03  2.8077E-03  2.5769E-03  2.3462E-03  2.1155E-03  1.8848E-03  1.6542E-03  1.4235E-03
       1.1928E-03  9.6215E-04  7.3148E-04  5.0082E-04  2.7016E-04  3.9501E-05 -1.9116E-04 -4.2181E-04 -6.5246E-04 -8.8312E-04
      -1.1138E-03 -1.3444E-03 -1.5751E-03 -1.8057E-03 -2.0363E-03 -2.2670E-03 -2.4976E-03 -2.7283E-03 -2.9589E-03 -3.1897E-03
      -3.4205E-03 -3.6515E-03 -3.8827E-03 -4.1141E-03 -4.3456E-03 -4.5769E-03 -4.8073E-03 -5.0353E-03 -5.2585E-03 -5.4742E-03
      -5.6804E-03
   9   5.8302E-03  5.5903E-03  5.3609E-03  5.1352E-03  4.9100E-03  4.6840E-03  4.4566E-03  4.2280E-03  3.9986E-03  3.7685E-03
       3.5380E-03  3.3074E-03  3.0767E-03  2.8459E-03  2.6152E-03  2.3845E-03  2.1538E-03  1.9231E-03  1.6924E-03  1.4617E-03
       1.2310E-03  1.0004E-03  7.6970E-04  5.3904E-04  3.0837E-04  7.7715E-05 -1.5294E-04 -3.8360E-04 -6.1425E-04 -8.4490E-04
      -1.0756E-03 -1.3062E-03 -1.5368E-03 -1.7675E-03 -1.9981E-03 -2.2287E-03 -2.4594E-03 -2.6900E-03 -2.9206E-03 -3.1513E-03
      -3.3821E-03 -3.6129E-03 -3.8441E-03 -4.0756E-03 -4.3076E-03 -4.5402E-03 -4.7730E-03 -5.0051E-03 -5.2344E-03 -5.4570E-03
      -5.6677E-03
  10   5.9279E-03  5.6693E-03  5.4276E-03  5.1945E-03  4.9652E-03  4.7372E-03  4.5091E-03  4.2805E-03  4.0513E-03  3.8215E-03
       3.5913E-03  3.3609E-03  3.1303E-03  2.8996E-03  2.6689E-03  2.4382E-03  2.2075E-03  1.9768E-03  1.7461E-03  1.5154E-03
       1.2848E-03  1.0541E-03  8.2342E-04  5.9276E-04  3.6210E-04  1.3144E-04 -9.9223E-05 -3.2988E-04 -5.6053E-04 -7.9119E-04
      -1.0218E-03 -1.2525E-03 -1.4831E-03 -1.7138E-03 -1.9444E-03 -2.1750E-03 -2.4056E-03 -2.6363E-03 -2.8668E-03 -3.0974E-03
      -3.3281E-03 -3.5589E-03 -3.7898E-03 -4.0213E-03 -4.2534E-03 -4.4865E-03 -4.7210E-03 -4.9566E-03 -5.1924E-03 -5.4251E-03
      -5.6476E-03
  11   6.0637E-03  5.7845E-03  5.5280E-03  5.2851E-03  5.0499E-03  4.8186E-03  4.5891E-03  4.3599E-03  4.1307E-03  3.9011E-03
       3.6711E-03  3.4408E-03  3.2104E-03  2.9798E-03  2.7492E-03  2.5185E-03  2.2878E-03  2.0571E-03  1.8264E-03  1.5957E-03
       1.3650E-03  1.1344E-03  9.0370E-04  6.7303E-04  4.4237E-04  2.1171E-04 -1.8954E-05 -2.4961E-04 -4.8027E-04 -7.1092E-04
      -9.4157E-04 -1.1722E-03 -1.4029E-03 -1.6335E-03 -1.8642E-03 -2.0948E-03 -2.3254E-03 -2.5560E-03 -2.7866E-03 -3.0171E-03
      -3.2477E-03 -3.4783E-03 -3.7091E-03 -3.9403E-03 -4.1721E-03 -4.4051E-03 -4.6400E-03 -4.8773E-03 -5.1174E-03 -5.3594E-03
      -5.5997E-03
  12   6.2445E-03  5.9495E-03  5.6778E-03  5.4237E-03  5.1811E-03  4.9455E-03  4.7135E-03  4.4834E-03  4.2538E-03  4.0242E-03
       3.7944E-03  3.5643E-03  3.3340E-03  3.1035E-03  2.8729E-03  2.6423E-03  2.4116E-03  2.1809E-03  1.9502E-03  1.7195E-03
       1.4889E-03  1.2582E-03  1.0275E-03  7.9685E-04  5.6619E-04  3.3552E-04  1.0486E-04 -1.2579E-04 -3.5645E-04 -5.8711E-04
      -8.1776E-04 -1.0484E-03 -1.2791E-03 -1.5097E-03 -1.7403E-03 -1.9710E-03 -2.2016E-03 -2.4322E-03 -2.6628E-03 -2.8933E-03
      -3.1238E-03 -3.3544E-03 -3.5850E-03 -3.8159E-03 -4.0473E-03 -4.2797E-03 -4.5138E-03 -4.7505E-03 -4.9911E-03 -5.2365E-03
      -5.4878E-03
1
  HEAD IN LAYER   9 AT END OF TIME STEP   1 IN STRESS PERIOD    1
  ---------------------------------------------------------------------------

            1           2           3           4           5           6           7           8           9          10
           11          12          13          14          15          16          17          18          19          20
           21          22          23          24          25          26          27          28          29          30
           31          32          33          34          35          36          37          38          39          40
           41          42          43          44          45          46          47          48          49          50
           51
 ....................................................................................................................................................................................................................................................................................................................................................................................................................................................................................................................................................................................................................................
   1   5.4308E-03  5.1744E-03  4.9274E-03  4.6865E-03  4.4497E-03  4.2154E-03  3.9829E-03  3.7514E-03  3.5204E-03  3.2897E-03
       3.0591E-03  2.8285E-03  2.5979E-03  2.3673E-03  2.1367E-03  1.9060E-03  1.6754E-03  1.4447E-03  1.2140E-03  9.8337E-04
       7.5270E-04  5.2204E-04  2.9137E-04  6.0714E-05 -1.6994E-04 -4.0060E-04 -6.3125E-04 -8.6191E-04 -1.0926E-03 -1.3232E-03
      -1.5539E-03 -1.7845E-03 -2.0152E-03 -2.2458E-03 -2.4765E-03 -2.7071E-03 -2.9377E-03 -3.1683E-03 -3.3987E-03 -3.6289E-03
      -3.8589E-03 -4.0885E-03 -4.3179E-03 -4.5472E-03 -4.7772E-03 -5.0091E-03 -5.2453E-03 -5.4896E-03 -5.7478E-03 -6.0271E-03
      -6.3342E-03
   2   5.5564E-03  5.3107E-03  5.0664E-03  4.8254E-03  4.5877E-03  4.3526E-03  4.1193E-03  3.8872E-03  3.6559E-03  3.4250E-03
       3.1943E-03  2.9637E-03  2.7331E-03  2.5025E-03  2.2718E-03  2.0412E-03  1.8105E-03  1.5799E-03  1.3492E-03  1.1185E-03
       8.8787E-04  6.5721E-04  4.2654E-04  1.9588E-04 -3.4777E-05 -2.6543E-04 -4.9609E-04 -7.2674E-04 -9.5739E-04 -1.1880E-03
      -1.4187E-03 -1.6494E-03 -1.8800E-03 -2.1107E-03 -2.3413E-03 -2.5720E-03 -2.8027E-03 -3.0333E-03 -3.2638E-03 -3.4942E-03
      -3.7244E-03 -3.9542E-03 -4.1836E-03 -4.4126E-03 -4.6414E-03 -4.8706E-03 -5.1018E-03 -5.3377E-03 -5.5830E-03 -5.8452E-03
      -6.1349E-03
   3   5.6181E-03  5.3909E-03  5.1560E-03  4.9190E-03  4.6826E-03  4.4476E-03  4.2141E-03  3.9817E-03  3.7501E-03  3.5189E-03
       3.2881E-03  3.0574E-03  2.8267E-03  2.5961E-03  2.3655E-03  2.1348E-03  1.9042E-03  1.6735E-03  1.4428E-03  1.2122E-03
       9.8149E-04  7.5082E-04  5.2016E-04  2.8950E-04  5.8838E-05 -1.7182E-04 -4.0247E-04 -6.3313E-04 -8.6378E-04 -1.0944E-03
      -1.3251E-03 -1.5557E-03 -1.7864E-03 -2.0170E-03 -2.2477E-03 -2.4784E-03 -2.7091E-03 -2.9397E-03 -3.1704E-03 -3.4009E-03
      -3.6313E-03 -3.8614E-03 -4.0910E-03 -4.3200E-03 -4.5482E-03 -4.7759E-03 -5.0035E-03 -5.2329E-03 -5.4674E-03 -5.7131E-03
      -5.9803E-03
   4   5.6482E-03  5.4341E-03  5.2097E-03  4.9793E-03  4.7464E-03  4.5129E-03  4.2799E-03  4.0475E-03  3.8158E-03  3.5845E-03
       3.3535E-03  3.1227E-03  2.8920E-03  2.6613E-03  2.4306E-03  2.2000E-03  1.9693E-03  1.7386E-03  1.5080E-03  1.2773E-03
       1.0467E-03  8.1599E-04  5.8532E-04  3.5466E-04  1.2400E-04 -1.0666E-04 -3.3731E-04 -5.6797E-04 -7.9862E-04 -1.0293E-03
      -1.2599E-03 -1.4906E-03 -1.7212E-03 -1.9519E-03 -2.1825E-03 -2.4132E-03 -2.6439E-03 -2.8746E-03 -3.1053E-03 -3.3360E-03
      -3.5666E-03 -3.7970E-03 -4.0270E-03 -4.2563E-03 -4.4846E-03 -4.7115E-03 -4.9372E-03 -5.1622E-03 -5.3886E-03 -5.6208E-03
      -5.8673E-03
   5   5.6681E-03  5.4592E-03  5.2422E-03  5.0182E-03  4.7896E-03  4.5587E-03  4.3270E-03  4.0951E-03  3.8635E-03  3.6322E-03
       3.4011E-03  3.1702E-03  2.9394E-03  2.7087E-03  2.4780E-03  2.2473E-03  2.0166E-03  1.7860E-03  1.5553E-03  1.3246E-03
       1.0940E-03  8.6331E-04  6.3265E-04  4.0199E-04  1.7132E-04 -5.9334E-05 -2.8999E-04 -5.2064E-04 -7.5130E-04 -9.8195E-04
      -1.2126E-03 -1.4432E-03 -1.6739E-03 -1.9045E-03 -2.1352E-03 -2.3659E-03 -2.5966E-03 -2.8273E-03 -3.0580E-03 -3.2888E-03
      -3.5196E-03 -3.7503E-03 -3.9807E-03 -4.2106E-03 -4.4394E-03 -4.6667E-03 -4.8918E-03 -5.1146E-03 -5.3357E-03 -5.5580E-03
      -5.7879E-03
   6   5.6912E-03  5.4806E-03  5.2663E-03  5.0464E-03  4.8216E-03  4.5934E-03  4.3634E-03  4.1324E-03  3.9012E-03  3.6700E-03
       3.4390E-03  3.2080E-03  2.9772E-03  2.7464E-03  2.5157E-03  2.2850E-03  2.0543E-03  1.8236E-03  1.5930E-03  1.3623E-03
       1.1316E-03  9.0096E-04  6.7029E-04  4.3963E-04  2.0897E-04 -2.1688E-05 -2.5234E-04 -4.8300E-04 -7.1365E-04 -9.4430E-04
      -1.1749E-03 -1.4056E-03 -1.6362E-03 -1.8669E-03 -2.0975E-03 -2.3282E-03 -2.5589E-03 -2.7896E-03 -3.0203E-03 -3.2512E-03
      -3.4821E-03 -3.7130E-03 -3.9438E-03 -4.1744E-03 -4.4042E-03 -4.6326E-03 -4.8586E-03 -5.0813E-03 -5.3003E-03 -5.5165E-03
      -5.7343E-03
   7   5.7261E-03  5.5083E-03  5.2920E-03  5.0731E-03  4.8503E-03  4.6243E-03  4.3959E-03  4.1660E-03  3.9355E-03  3.7046E-03
       3.4736E-03  3.2427E-03  3.0118E-03  2.7811E-03  2.5503E-03  2.3196E-03  2.0889E-03  1.8582E-03  1.6275E-03  1.3969E-03
       1.1662E-03  9.3555E-04  7.0488E-04  4.7422E-04  2.4356E-04  1.2901E-05 -2.1776E-04 -4.4841E-04 -6.7906E-04 -9.0971E-04
      -1.1404E-03 -1.3710E-03 -1.6016E-03 -1.8323E-03 -2.0629E-03 -2.2936E-03 -2.5242E-03 -2.7549E-03 -2.9857E-03 -3.2165E-03
      -3.4474E-03 -3.6784E-03 -3.9096E-03 -4.1408E-03 -4.3717E-03 -4.6017E-03 -4.8298E-03 -5.0546E-03 -5.2746E-03 -5.4889E-03
      -5.6994E-03
   8   5.7796E-03  5.5498E-03  5.3275E-03  5.1063E-03  4.8835E-03  4.6584E-03  4.4311E-03  4.2022E-03  3.9723E-03  3.7419E-03
       3.5112E-03  3.2804E-03  3.0495E-03  2.8188E-03  2.5880E-03  2.3573E-03  2.1266E-03  1.8959E-03  1.6652E-03  1.4345E-03
       1.2039E-03  9.7319E-04  7.4253E-04  5.1187E-04  2.8121E-04  5.0546E-05 -1.8011E-04 -4.1077E-04 -6.4142E-04 -8.7207E-04
      -1.1027E-03 -1.3334E-03 -1.5640E-03 -1.7946E-03 -2.0253E-03 -2.2559E-03 -2.4866E-03 -2.7172E-03 -2.9479E-03 -3.1787E-03
      -3.4095E-03 -3.6406E-03 -3.8719E-03 -4.1035E-03 -4.3353E-03 -4.5670E-03 -4.7979E-03 -5.0265E-03 -5.2505E-03 -5.4675E-03
      -5.6764E-03
   9   5.8590E-03  5.6125E-03  5.3803E-03  5.1539E-03  4.9289E-03  4.7032E-03  4.4763E-03  4.2480E-03  4.0186E-03  3.7886E-03
       3.5582E-03  3.3276E-03  3.0969E-03  2.8661E-03  2.6354E-03  2.4046E-03  2.1739E-03  1.9432E-03  1.7125E-03  1.4819E-03
       1.2512E-03  1.0205E-03  7.8986E-04  5.5919E-04  3.2853E-04  9.7872E-05 -1.3279E-04 -3.6344E-04 -5.9410E-04 -8.2475E-04
      -1.0554E-03 -1.2860E-03 -1.5167E-03 -1.7473E-03 -1.9780E-03 -2.2086E-03 -2.4392E-03 -2.6698E-03 -2.9005E-03 -3.1312E-03
      -3.3619E-03 -3.5929E-03 -3.8242E-03 -4.0559E-03 -4.2882E-03 -4.5212E-03 -4.7547E-03 -4.9876E-03 -5.2180E-03 -5.4423E-03
      -5.6564E-03
  10   5.9721E-03  5.7049E-03  5.4592E-03  5.2247E-03  4.9953E-03  4.7676E-03  4.5399E-03  4.3117E-03  4.0827E-03  3.8530E-03
       3.6229E-03  3.3925E-03  3.1619E-03  2.9312E-03  2.7005E-03  2.4698E-03  2.2391E-03  2.0084E-03  1.7777E-03  1.5470E-03
       1.3164E-03  1.0857E-03  8.5502E-04  6.2436E-04  3.9369E-04  1.6303E-04 -6.7626E-05 -2.9828E-04 -5.2894E-04 -7.5959E-04
      -9.9024E-04 -1.2209E-03 -1.4515E-03 -1.6822E-03 -1.9128E-03 -2.1434E-03 -2.3740E-03 -2.6046E-03 -2.8352E-03 -3.0659E-03
      -3.2965E-03 -3.5274E-03 -3.7585E-03 -3.9900E-03 -4.2224E-03 -4.4559E-03 -4.6909E-03 -4.9273E-03 -5.1643E-03 -5.3992E-03
      -5.6263E-03
  11   6.1267E-03  5.8369E-03  5.5748E-03  5.3295E-03  5.0936E-03  4.8624E-03  4.6331E-03  4.4043E-03  4.1753E-03  3.9458E-03
       3.7160E-03  3.4858E-03  3.2553E-03  3.0248E-03  2.7941E-03  2.5634E-03  2.3327E-03  2.1020E-03  1.8713E-03  1.6407E-03
       1.4100E-03  1.1793E-03  9.4864E-04  7.1797E-04  4.8731E-04  2.5665E-04  2.5989E-05 -2.0467E-04 -4.3532E-04 -6.6598E-04
      -8.9663E-04 -1.1273E-03 -1.3579E-03 -1.5886E-03 -1.8192E-03 -2.0498E-03 -2.2804E-03 -2.5110E-03 -2.7416E-03 -2.9722E-03
      -3.2028E-03 -3.4335E-03 -3.6643E-03 -3.8956E-03 -4.1276E-03 -4.3609E-03 -4.5960E-03 -4.8337E-03 -5.0747E-03 -5.3190E-03
      -5.5646E-03
  12   6.3260E-03  6.0189E-03  5.7396E-03  5.4814E-03  5.2370E-03  5.0008E-03  4.7689E-03  4.5389E-03  4.3096E-03  4.0802E-03
       3.8505E-03  3.6205E-03  3.3903E-03  3.1598E-03  2.9292E-03  2.6986E-03  2.4679E-03  2.2372E-03  2.0065E-03  1.7758E-03
       1.5452E-03  1.3145E-03  1.0838E-03  8.5315E-04  6.2248E-04  3.9182E-04  1.6116E-04 -6.9500E-05 -3.0016E-04 -5.3081E-04
      -7.6147E-04 -9.9212E-04 -1.2228E-03 -1.4534E-03 -1.6841E-03 -1.9147E-03 -2.1453E-03 -2.3759E-03 -2.6065E-03 -2.8370E-03
      -3.0676E-03 -3.2982E-03 -3.5288E-03 -3.7598E-03 -3.9913E-03 -4.2238E-03 -4.4580E-03 -4.6948E-03 -4.9357E-03 -5.1826E-03
      -5.4391E-03
1
  HEAD IN LAYER  10 AT END OF TIME STEP   1 IN STRESS PERIOD    1
  ---------------------------------------------------------------------------

            1           2           3           4           5           6           7           8           9          10
           11          12          13          14          15          16          17          18          19          20
           21          22          23          24          25          26          27          28          29          30
           31          32          33          34          35          36          37          38          39          40
           41          42          43          44          45          46          47          48          49          50
           51
 ....................................................................................................................................................................................................................................................................................................................................................................................................................................................................................................................................................................................................................................
   1   5.4081E-03  5.1490E-03  4.9012E-03  4.6600E-03  4.4231E-03  4.1888E-03  3.9562E-03  3.7247E-03  3.4936E-03  3.2629E-03
       3.0323E-03  2.8017E-03  2.5711E-03  2.3405E-03  2.1098E-03  1.8792E-03  1.6485E-03  1.4179E-03  1.1872E-03  9.5653E-04
       7.2586E-04  4.9520E-04  2.6453E-04  3.3873E-05 -1.9678E-04 -4.2744E-04 -6.5809E-04 -8.8875E-04 -1.1194E-03 -1.3500E-03
      -1.5807E-03 -1.8114E-03 -2.0420E-03 -2.2727E-03 -2.5033E-03 -2.7340E-03 -2.9646E-03 -3.1951E-03 -3.4255E-03 -3.6557E-03
      -3.8857E-03 -4.1152E-03 -4.3445E-03 -4.5737E-03 -4.8036E-03 -5.0354E-03 -5.2720E-03 -5.5173E-03 -5.7777E-03 -6.0611E-03
      -6.3741E-03
   2   5.5397E-03  5.2912E-03  5.0456E-03  4.8041E-03  4.5661E-03  4.3308E-03  4.0974E-03  3.8653E-03  3.6339E-03  3.4030E-03
       3.1722E-03  2.9416E-03  2.7110E-03  2.4804E-03  2.2497E-03  2.0191E-03  1.7884E-03  1.5578E-03  1.3271E-03  1.0965E-03
       8.6578E-04  6.3512E-04  4.0445E-04  1.7379E-04 -5.6866E-05 -2.8752E-04 -5.1818E-04 -7.4883E-04 -9.7948E-04 -1.2101E-03
      -1.4408E-03 -1.6714E-03 -1.9021E-03 -2.1328E-03 -2.3634E-03 -2.5941E-03 -2.8247E-03 -3.0554E-03 -3.2859E-03 -3.5163E-03
      -3.7464E-03 -3.9762E-03 -4.2055E-03 -4.4344E-03 -4.6630E-03 -4.8921E-03 -5.1233E-03 -5.3597E-03 -5.6063E-03 -5.8715E-03
      -6.1665E-03
   3   5.6077E-03  5.3781E-03  5.1419E-03  4.9042E-03  4.6674E-03  4.4321E-03  4.1984E-03  3.9659E-03  3.7342E-03  3.5030E-03
       3.2722E-03  3.0414E-03  2.8108E-03  2.5801E-03  2.3495E-03  2.1189E-03  1.8882E-03  1.6575E-03  1.4269E-03  1.1962E-03
       9.6554E-04  7.3488E-04  5.0421E-04  2.7355E-04  4.2891E-05 -1.8777E-04 -4.1842E-04 -6.4907E-04 -8.7973E-04 -1.1104E-03
      -1.3410E-03 -1.5717E-03 -1.8023E-03 -2.0330E-03 -2.2637E-03 -2.4943E-03 -2.7250E-03 -2.9557E-03 -3.1863E-03 -3.4169E-03
      -3.6473E-03 -3.8773E-03 -4.1069E-03 -4.3357E-03 -4.5638E-03 -4.7912E-03 -5.0188E-03 -5.2483E-03 -5.4836E-03 -5.7315E-03
      -6.0031E-03
   4   5.6427E-03  5.4267E-03  5.2013E-03  4.9703E-03  4.7369E-03  4.5032E-03  4.2699E-03  4.0374E-03  3.8056E-03  3.5742E-03
       3.3432E-03  3.1123E-03  2.8816E-03  2.6509E-03  2.4203E-03  2.1896E-03  1.9590E-03  1.7283E-03  1.4976E-03  1.2670E-03
       1.0363E-03  8.0564E-04  5.7498E-04  3.4431E-04  1.1365E-04 -1.1700E-04 -3.4766E-04 -5.7831E-04 -8.0897E-04 -1.0396E-03
      -1.2703E-03 -1.5009E-03 -1.7316E-03 -1.9622E-03 -2.1929E-03 -2.4236E-03 -2.6543E-03 -2.8850E-03 -3.1157E-03 -3.3464E-03
      -3.5770E-03 -3.8074E-03 -4.0373E-03 -4.2665E-03 -4.4947E-03 -4.7215E-03 -4.9470E-03 -5.1720E-03 -5.3988E-03 -5.6325E-03
      -5.8824E-03
   5   5.6664E-03  5.4559E-03  5.2381E-03  5.0137E-03  4.7848E-03  4.5536E-03  4.3217E-03  4.0897E-03  3.8579E-03  3.6265E-03
       3.3954E-03  3.1645E-03  2.9337E-03  2.7029E-03  2.4722E-03  2.2416E-03  2.0109E-03  1.7803E-03  1.5496E-03  1.3189E-03
       1.0883E-03  8.5759E-04  6.2693E-04  3.9626E-04  1.6560E-04 -6.5055E-05 -2.9571E-04 -5.2637E-04 -7.5702E-04 -9.8767E-04
      -1.2183E-03 -1.4490E-03 -1.6796E-03 -1.9103E-03 -2.1409E-03 -2.3716E-03 -2.6023E-03 -2.8330E-03 -3.0638E-03 -3.2946E-03
      -3.5254E-03 -3.7561E-03 -3.9865E-03 -4.2163E-03 -4.4451E-03 -4.6723E-03 -4.8973E-03 -5.1200E-03 -5.3414E-03 -5.5648E-03
      -5.7971E-03
   6   5.6926E-03  5.4805E-03  5.2655E-03  5.0453E-03  4.8203E-03  4.5920E-03  4.3619E-03  4.1308E-03  3.8995E-03  3.6683E-03
       3.4372E-03  3.2062E-03  2.9753E-03  2.7446E-03  2.5138E-03  2.2831E-03  2.0525E-03  1.8218E-03  1.5911E-03  1.3605E-03
       1.1298E-03  8.9914E-04  6.6847E-04  4.3781E-04  2.0715E-04 -2.3510E-05 -2.5417E-04 -4.8482E-04 -7.1547E-04 -9.4612E-04
      -1.1768E-03 -1.4074E-03 -1.6381E-03 -1.8687E-03 -2.0994E-03 -2.3300E-03 -2.5607E-03 -2.7914E-03 -3.0222E-03 -3.2530E-03
      -3.4839E-03 -3.7149E-03 -3.9458E-03 -4.1763E-03 -4.4062E-03 -4.6346E-03 -4.8606E-03 -5.0834E-03 -5.3025E-03 -5.5195E-03
      -5.7391E-03
   7   5.7309E-03  5.5113E-03  5.2943E-03  5.0751E-03  4.8523E-03  4.6263E-03  4.3979E-03  4.1680E-03  3.9374E-03  3.7065E-03
       3.4755E-03  3.2445E-03  3.0137E-03  2.7829E-03  2.5521E-03  2.3214E-03  2.0907E-03  1.8600E-03  1.6294E-03  1.3987E-03
       1.1680E-03  9.3737E-04  7.0671E-04  4.7604E-04  2.4538E-04  1.4723E-05 -2.1593E-04 -4.4659E-04 -6.7724E-04 -9.0789E-04
      -1.1385E-03 -1.3692E-03 -1.5998E-03 -1.8305E-03 -2.0611E-03 -2.2918E-03 -2.5224E-03 -2.7531E-03 -2.9838E-03 -3.2147E-03
      -3.4456E-03 -3.6767E-03 -3.9079E-03 -4.1392E-03 -4.3702E-03 -4.6003E-03 -4.8286E-03 -5.0536E-03 -5.2738E-03 -5.4888E-03
      -5.7008E-03
   8   5.7889E-03  5.5565E-03  5.3332E-03  5.1118E-03  4.8890E-03  4.6640E-03  4.4368E-03  4.2080E-03  3.9781E-03  3.7477E-03
       3.5169E-03  3.2861E-03  3.0553E-03  2.8245E-03  2.5937E-03  2.3630E-03  2.1323E-03  1.9016E-03  1.6709E-03  1.4403E-03
       1.2096E-03  9.7892E-04  7.4825E-04  5.1759E-04  2.8693E-04  5.6269E-05 -1.7439E-04 -4.0504E-04 -6.3570E-04 -8.6635E-04
      -1.0970E-03 -1.3276E-03 -1.5583E-03 -1.7889E-03 -2.0196E-03 -2.2502E-03 -2.4808E-03 -2.7115E-03 -2.9422E-03 -3.1729E-03
      -3.4038E-03 -3.6349E-03 -3.8663E-03 -4.0980E-03 -4.3300E-03 -4.5619E-03 -4.7930E-03 -5.0219E-03 -5.2464E-03 -5.4642E-03
      -5.6746E-03
   9   5.8742E-03  5.6243E-03  5.3906E-03  5.1637E-03  4.9387E-03  4.7132E-03  4.4864E-03  4.2582E-03  4.0290E-03  3.7990E-03
       3.5686E-03  3.3379E-03  3.1072E-03  2.8765E-03  2.6457E-03  2.4150E-03  2.1843E-03  1.9536E-03  1.7229E-03  1.4922E-03
       1.2615E-03  1.0309E-03  8.0020E-04  5.6954E-04  3.3888E-04  1.0822E-04 -1.2244E-04 -3.5310E-04 -5.8375E-04 -8.1440E-04
      -1.0451E-03 -1.2757E-03 -1.5063E-03 -1.7370E-03 -1.9676E-03 -2.1982E-03 -2.4289E-03 -2.6595E-03 -2.8901E-03 -3.1208E-03
      -3.3516E-03 -3.5826E-03 -3.8139E-03 -4.0458E-03 -4.2783E-03 -4.5115E-03 -4.7452E-03 -4.9786E-03 -5.2096E-03 -5.4349E-03
      -5.6510E-03
  10   5.9949E-03  5.7233E-03  5.4754E-03  5.2401E-03  5.0105E-03  4.7830E-03  4.5555E-03  4.3274E-03  4.0985E-03  3.8689E-03
       3.6389E-03  3.4085E-03  3.1779E-03  2.9472E-03  2.7165E-03  2.4858E-03  2.2551E-03  2.0244E-03  1.7937E-03  1.5630E-03
       1.3323E-03  1.1016E-03  8.7097E-04  6.4030E-04  4.0964E-04  1.7898E-04 -5.1678E-05 -2.8233E-04 -5.1299E-04 -7.4364E-04
      -9.7429E-04 -1.2049E-03 -1.4356E-03 -1.6662E-03 -1.8969E-03 -2.1275E-03 -2.3581E-03 -2.5887E-03 -2.8193E-03 -3.0499E-03
      -3.2806E-03 -3.5115E-03 -3.7426E-03 -3.9743E-03 -4.2068E-03 -4.4405E-03 -4.6757E-03 -4.9125E-03 -5.1501E-03 -5.3863E-03
      -5.6160E-03
  11   6.1583E-03  5.8633E-03  5.5981E-03  5.3514E-03  5.1151E-03  4.8838E-03  4.6547E-03  4.4261E-03  4.1972E-03  3.9678E-03
       3.7380E-03  3.5079E-03  3.2774E-03  3.0469E-03  2.8162E-03  2.5855E-03  2.3548E-03  2.1241E-03  1.8934E-03  1.6628E-03
       1.4321E-03  1.2014E-03  9.7073E-04  7.4006E-04  5.0940E-04  2.7874E-04  4.8079E-05 -1.8258E-04 -4.1323E-04 -6.4389E-04
      -8.7454E-04 -1.1052E-03 -1.3358E-03 -1.5665E-03 -1.7971E-03 -2.0277E-03 -2.2584E-03 -2.4890E-03 -2.7195E-03 -2.9501E-03
      -3.1807E-03 -3.4114E-03 -3.6423E-03 -3.8737E-03 -4.1058E-03 -4.3391E-03 -4.5744E-03 -4.8123E-03 -5.0539E-03 -5.2994E-03
      -5.5479E-03
  12   6.3658E-03  6.0529E-03  5.7695E-03  5.5091E-03  5.2637E-03  5.0272E-03  4.7953E-03  4.5654E-03  4.3362E-03  4.1069E-03
       3.8773E-03  3.6473E-03  3.4171E-03  3.1867E-03  2.9561E-03  2.7254E-03  2.4948E-03  2.2641E-03  2.0334E-03  1.8027E-03
       1.5720E-03  1.3413E-03  1.1107E-03  8.7999E-04  6.4932E-04  4.1866E-04  1.8800E-04 -4.2660E-05 -2.7332E-04 -5.0397E-04
      -7.3463E-04 -9.6528E-04 -1.1959E-03 -1.4266E-03 -1.6572E-03 -1.8878E-03 -2.1185E-03 -2.3491E-03 -2.5796E-03 -2.8102E-03
      -3.0408E-03 -3.2714E-03 -3.5021E-03 -3.7331E-03 -3.9646E-03 -4.1971E-03 -4.4314E-03 -4.6683E-03 -4.9094E-03 -5.1573E-03
      -5.4163E-03

 HEAD WILL BE SAVED ON UNIT 1013 AT END OF TIME STEP    1, STRESS PERIOD    1


  VOLUME BUDGET FOR ENTIRE MODEL AT END OF TIME STEP    1, STRESS PERIOD   1
  ---------------------------------------------------------------------------------------------------

     CUMULATIVE VOLUME      L**3       RATES FOR THIS TIME STEP      L**3/T          PACKAGE NAME    
     ------------------                 ------------------------                     ----------------

           IN:                                      IN:
           ---                                      ---
                 WEL =           1.2000                   WEL =           1.2000     WEL                              

            TOTAL IN =           1.2000              TOTAL IN =           1.2000

          OUT:                                     OUT:
          ----                                     ----
                 WEL =           1.2000                   WEL =           1.2000     WEL                              

           TOTAL OUT =           1.2000             TOTAL OUT =           1.2000

            IN - OUT =           0.0000              IN - OUT =           0.0000

 PERCENT DISCREPANCY =           0.00     PERCENT DISCREPANCY =           0.00




         TIME SUMMARY AT END OF TIME STEP    1 IN STRESS PERIOD    1
                    SECONDS     MINUTES      HOURS       DAYS        YEARS
                    -----------------------------------------------------------
   TIME STEP LENGTH  86400.      1440.0      24.000      1.0000     2.73785E-03
 STRESS PERIOD TIME  86400.      1440.0      24.000      1.0000     2.73785E-03
         TOTAL TIME  86400.      1440.0      24.000      1.0000     2.73785E-03


end timestep

