 LISTING FILE: p07-mt.list
                         UNIT  16

 OPENING mt3d_link.ftl
 FILE TYPE:FTL   UNIT  10

 OPENING p07-mt.btn
 FILE TYPE:BTN   UNIT  31

 OPENING p07-mt.adv
 FILE TYPE:ADV   UNIT  32

 OPENING p07-mt.dsp
 FILE TYPE:DSP   UNIT  33

 OPENING p07-mt.ssm
 FILE TYPE:SSM   UNIT  34

 OPENING p07-mt.gcg
 FILE TYPE:GCG   UNIT  35

                              +++++++++++++++++++++++++++++++++++++++++++++++++++++++++++++++++++++++
                              +                                                                     +
                              +                              MT3D-USGS                              +
                              +             A Modular 3D Multi-Species Transport Model              +
                              +    For Simulation of Advection, Dispersion and Chemical Reactions   +
                              +                of Contaminants in Groundwater Systems               +
                              +                                                                     +
                              +++++++++++++++++++++++++++++++++++++++++++++++++++++++++++++++++++++++

  ----- 
 | M T | ## BTN for MT3DMS, generated by Flopy.                                          
 | 3 D | ##                                                                              
  ----- 
 THE TRANSPORT MODEL CONSISTS OF     8 LAYER(S)   15 ROW(S)   21 COLUMN(S)
 NUMBER OF STRESS PERIOD(S) FOR TRANSPORT SIMULATION =    1
 NUMBER OF ALL COMPONENTS INCLUDED IN SIMULATION =    1
 NUMBER OF MOBILE COMPONENTS INCLUDED IN SIMULATION =    1
 UNIT FOR TIME IS D   ;  UNIT FOR LENGTH IS M   ;  UNIT FOR MASS IS KG  
 OPTIONAL PACKAGES INCLUDED IN CURRENT SIMULATION:
  o ADV   ON UNIT 32
  o DSP   ON UNIT 33
  o SSM   ON UNIT 34
  o GCG   ON UNIT 35


 BTN1 -- BASIC TRANSPORT PACKAGE, VERSION 1, MAY 2016, INPUT READ FROM UNIT 31

 BTN PACKAGE KEYWORD INPUT: 
 DRYCELL OPTION NOT SET
  DRY CELL BUDGET OMITTED FROM GLOBAL MASS BALANCE SUMMARY

 LAYER NUMBER  AQUIFER TYPE
 ------------  ------------
       1            0
       2            0
       3            0
       4            0
       5            0
       6            0
       7            0
       8            0
                                       WIDTH ALONG ROWS (DELR)  =   10.00000    
                                       WIDTH ALONG COLS (DELC)  =   10.00000    
                                       TOP ELEV. OF 1ST LAYER   =   0.000000    

                     CELL THICKNESS (DZ)      FOR LAYER  1 READ ON UNIT  31 USING FORMAT: "          (21E15.6) "
                     ------------------------------------------------------------------------------------------

                     CELL THICKNESS (DZ)      FOR LAYER  2 READ ON UNIT  31 USING FORMAT: "          (21E15.6) "
                     ------------------------------------------------------------------------------------------

                     CELL THICKNESS (DZ)      FOR LAYER  3 READ ON UNIT  31 USING FORMAT: "          (21E15.6) "
                     ------------------------------------------------------------------------------------------

                     CELL THICKNESS (DZ)      FOR LAYER  4 READ ON UNIT  31 USING FORMAT: "          (21E15.6) "
                     ------------------------------------------------------------------------------------------

                     CELL THICKNESS (DZ)      FOR LAYER  5 READ ON UNIT  31 USING FORMAT: "          (21E15.6) "
                     ------------------------------------------------------------------------------------------

                     CELL THICKNESS (DZ)      FOR LAYER  6 READ ON UNIT  31 USING FORMAT: "          (21E15.6) "
                     ------------------------------------------------------------------------------------------

                     CELL THICKNESS (DZ)      FOR LAYER  7 READ ON UNIT  31 USING FORMAT: "          (21E15.6) "
                     ------------------------------------------------------------------------------------------

                     CELL THICKNESS (DZ)      FOR LAYER  8 READ ON UNIT  31 USING FORMAT: "          (21E15.6) "
                     ------------------------------------------------------------------------------------------
                                       POROSITY                 =  0.2000000     FOR LAYER  1
                                       POROSITY                 =  0.2000000     FOR LAYER  2
                                       POROSITY                 =  0.2000000     FOR LAYER  3
                                       POROSITY                 =  0.2000000     FOR LAYER  4
                                       POROSITY                 =  0.2000000     FOR LAYER  5
                                       POROSITY                 =  0.2000000     FOR LAYER  6
                                       POROSITY                 =  0.2000000     FOR LAYER  7
                                       POROSITY                 =  0.2000000     FOR LAYER  8
                                       CONCN. BOUNDARY ARRAY    =              1 FOR LAYER  1
                                       CONCN. BOUNDARY ARRAY    =              1 FOR LAYER  2
                                       CONCN. BOUNDARY ARRAY    =              1 FOR LAYER  3
                                       CONCN. BOUNDARY ARRAY    =              1 FOR LAYER  4
                                       CONCN. BOUNDARY ARRAY    =              1 FOR LAYER  5
                                       CONCN. BOUNDARY ARRAY    =              1 FOR LAYER  6
                                       CONCN. BOUNDARY ARRAY    =              1 FOR LAYER  7
                                       CONCN. BOUNDARY ARRAY    =              1 FOR LAYER  8
                                       INITIAL CONC.: COMP.  01 =   0.000000     FOR LAYER  1
                                       INITIAL CONC.: COMP.  01 =   0.000000     FOR LAYER  2
                                       INITIAL CONC.: COMP.  01 =   0.000000     FOR LAYER  3
                                       INITIAL CONC.: COMP.  01 =   0.000000     FOR LAYER  4
                                       INITIAL CONC.: COMP.  01 =   0.000000     FOR LAYER  5
                                       INITIAL CONC.: COMP.  01 =   0.000000     FOR LAYER  6
                                       INITIAL CONC.: COMP.  01 =   0.000000     FOR LAYER  7
                                       INITIAL CONC.: COMP.  01 =   0.000000     FOR LAYER  8

 VALUE INDICATING INACTIVE CONCENTRATION CELLS =   0.1000000E+31
 MINIMUM SATURATED THICKNESS [THKMIN] ALLOWED =  0.0100000 OF TOTAL CELL THICKNESS


 OUTPUT CONTROL OPTIONS
 ----------------------

 DO NOT PRINT CELL CONCENTRATION
 DO NOT PRINT PARTICLE NUMBER IN EACH CELL
 DO NOT PRINT RETARDATION FACTOR
 DO NOT PRINT DISPERSION COEFFICIENT
 SAVE DISSOLVED PHASE CONCENTRATIONS IN UNFORMATTED FILES [MT3Dnnn.UCN]
  FOR EACH SPECIES ON UNITS 201 AND ABOVE

 NUMBER OF TIMES AT WHICH SIMULATION RESULTS ARE SAVED =    0

 NUMBER OF OBSERVATION POINTS =    0

 SAVE ONE-LINE SUMMARY OF MASS BUDGETS IN FILES [MT3Dnnn.MAS]
  FOR EACH SPECIES ON UNITS 601 AND ABOVE, EVERY  1 TRANSPORT STEPS

 MAXIMUM LENGTH ALONG THE X (J) AXIS =   210.0000    
 MAXIMUM LENGTH ALONG THE Y (I) AXIS =   150.0000    
 MAXIMUM LENGTH ALONG THE Z (K) AXIS =   80.00000    
 FMI1 -- FLOW MODEL INTERFACE PACKAGE, VERSION 1, MAY 2016, INPUT READ FROM UNIT 10
 FLOW MODEL IS STEADY-STATE
 FLOW MODEL CONTAINS CONSTANT-HEAD CELLS


 ADV1 -- ADVECTION PACKAGE, VERSION 1, MAY 2016, INPUT READ FROM UNIT 32
 ADVECTION IS SOLVED WITH THE ULTIMATE SCHEME
 COURANT NUMBER ALLOWED IN SOLVING THE ADVECTION TERM =  1.00    


 ADVECTION SOLUTION OPTIONS
 --------------------------

 ADVECTION IS SOLVED WITH THE ULTIMATE SCHEME
 COURANT NUMBER ALLOWED IN SOLVING THE ADVECTION TERM =  1.00    

 DSP1 -- DISPERSION PACKAGE, VERSION 1, MAY 2016, INPUT READ FROM UNIT 33


 DISPERSION INPUT PARAMETERS
 ---------------------------

                                       LONG. DISPERSIVITY (AL)  =   10.00000     FOR LAYER  1
                                       LONG. DISPERSIVITY (AL)  =   10.00000     FOR LAYER  2
                                       LONG. DISPERSIVITY (AL)  =   10.00000     FOR LAYER  3
                                       LONG. DISPERSIVITY (AL)  =   10.00000     FOR LAYER  4
                                       LONG. DISPERSIVITY (AL)  =   10.00000     FOR LAYER  5
                                       LONG. DISPERSIVITY (AL)  =   10.00000     FOR LAYER  6
                                       LONG. DISPERSIVITY (AL)  =   10.00000     FOR LAYER  7
                                       LONG. DISPERSIVITY (AL)  =   10.00000     FOR LAYER  8
                                       H. TRANS./LONG. DISP.    =  0.3000000    
                                       V. TRANS./LONG. DISP.    =  0.3000000    
                                       DIFFUSION COEFFICIENT    =   0.000000    

 SSM1 -- SINK & SOURCE MIXING PACKAGE, VERSION 1, MAY 2016, INPUT READ FROM UNIT 34
 HEADER LINE OF THE SSM PACKAGE INPUT FILE:
  T F F F F F F F F F F F F F F F                                        
 MAJOR STRESS COMPONENTS PRESENT IN THE FLOW MODEL:
  o WELL [WEL]
 MAXIMUM NUMBER OF POINT SINKS/SOURCES =     241

 GCG1 -- GENERALIZED CONJUGATE GRADIENT SOLVER PACKAGE, VERSION 1, OCTOBER 2010 INPUT READ FROM UNIT 35
 MAXIMUM OF    1 OUTER ITERATIONS
        AND   50 INNER ITERATIONS ALLOWED FOR CLOSURE
 THE PRECONDITIONING TYPE SELECTED IS MODIFIED INCOMPLETE CHOLESKY (MIC).
 DISPERSION CROSS TERMS LUMPED INTO RIGHT-HAND-SIDE



                                               SOLUTION BY THE GENERALIZED CONJUGATE GRADIENT METHOD
                                               -----------------------------------------------------
                                     MAXIMUM OUTER ITERATIONS ALLOWED FOR CLOSURE =        1
                                     MAXIMUM INNER ITERATIONS ALLOWED FOR CLOSURE =       50
                                                    PRECONDITIONING TYPE SELECTED =    3
                                                           ACCELERATION PARAMETER =     1.0000    
                                       CONCENTRATION CHANGE CRITERION FOR CLOSURE =    0.10000E-04
                                       GCG CONCENTRATION CHANGE PRINTOUT INTERVAL =      999


                                   ++++++++++++++++++++++++++++++++++++++++++++++++++++++++++++++
                                                       STRESS PERIOD NO.  001
                                   ++++++++++++++++++++++++++++++++++++++++++++++++++++++++++++++


 LENGTH OF CURRENT STRESS PERIOD =   100.0000    
 NUMBER OF TIME STEPS FOR CURRENT STRESS PERIOD =   10
 TIME STEP MULTIPLIER USED IN FLOW SOLUTION =   1.000000    

 ***Type of Transport Simulation is TRANSIENT

 USER-SPECIFIED TRANSPORT STEPSIZE =   10.00000    D   
 MAXIMUM NUMBER OF TRANSPORT STEPS ALLOWED  IN ONE FLOW TIME STEP =     50000
 MULTIPLIER FOR SUCCESSIVE TRANSPORT STEPS  [USED IN IMPLICIT SCHEMES] =     1.000
 MAXIMUM TRANSPORT STEP SIZE  [USED IN IMPLICIT SCHEMES] =   0.000000    D   

       NO    LAYER   ROW   COLUMN   CONCENTRATION       TYPE            COMPONENT
       1       7       8       3       100.0000         WELL                1


                                          ================================================
                                                         TIME STEP NO.  001
                                          ================================================

 FROM TIME =   0.0000     TO    10.000    


                    "THKSAT          " FLOW TERMS FOR TIME STEP  1, STRESS PERIOD  1 READ UNFORMATTED ON UNIT 10
                    --------------------------------------------------------------------------------------------

                    "QXX             " FLOW TERMS FOR TIME STEP  1, STRESS PERIOD  1 READ UNFORMATTED ON UNIT 10
                    --------------------------------------------------------------------------------------------

                    "QYY             " FLOW TERMS FOR TIME STEP  1, STRESS PERIOD  1 READ UNFORMATTED ON UNIT 10
                    --------------------------------------------------------------------------------------------

                    "QZZ             " FLOW TERMS FOR TIME STEP  1, STRESS PERIOD  1 READ UNFORMATTED ON UNIT 10
                    --------------------------------------------------------------------------------------------

 MAXIMUM STEPSIZE DURING WHICH ANY PARTICLE CANNOT MOVE MORE THAN ONE CELL
 =  59.26    (WHEN MIN. R.F.=1)  AT K=   7, I=   8, J=   4

 MAXIMUM STEPSIZE WHICH MEETS STABILITY CRITERION OF THE ADVECTION TERM
 (FOR PURE FINITE-DIFFERENCE OPTION, MIXELM=0) 
 =  55.70    (WHEN MIN. R.F.=1)  AT K=   7, I=   8, J=   3

                    "CNH             " FLOW TERMS FOR TIME STEP  1, STRESS PERIOD  1 READ UNFORMATTED ON UNIT 10
                    --------------------------------------------------------------------------------------------

                    "WEL             " FLOW TERMS FOR TIME STEP  1, STRESS PERIOD  1 READ UNFORMATTED ON UNIT 10
                    --------------------------------------------------------------------------------------------


 TOTAL NUMBER OF POINT SOURCES/SINKS PRESENT IN THE FLOW MODEL =   241

 MAXIMUM STEPSIZE WHICH MEETS STABILITY CRITERION OF THE SINK & SOURCE TERM
 =  60.02    (WHEN MIN. R.F.=1)  AT K=   1, I=  15, J=   1

 MAXIMUM STEPSIZE WHICH MEETS STABILITY CRITERION OF THE DISPERSION TERM
 =  18.51    (WHEN MIN. R.F.=1)  AT K=   7, I=   8, J=   3


     1 CALLS TO GCG PACKAGE FOR TRANSPORT TIME STEP     1 IN FLOW TIME STEP     1 STRESS PERIOD     1
      4 TOTAL ITERATIONS
  MAXIMUM CONCENTRATION CHANGES FOR EACH ITERATION:
  MAX. CHANGE LAYER,ROW,COL MAX. CHANGE LAYER,ROW,COL MAX. CHANGE LAYER,ROW,COL MAX. CHANGE LAYER,ROW,COL MAX. CHANGE LAYER,ROW,COL
 ------------------------------------------------------------------------------------------------------------------------------------
    1.678     (  7,  8,  3)  0.6361E-02 (  8,  8,  2)  0.5808E-04 (  8,  9,  1)  0.2814E-06 (  8,  6,  4)


                                          ================================================
                                                         TIME STEP NO.  002
                                          ================================================

 FROM TIME =   10.000     TO    20.000    



     1 CALLS TO GCG PACKAGE FOR TRANSPORT TIME STEP     1 IN FLOW TIME STEP     2 STRESS PERIOD     1
      4 TOTAL ITERATIONS
  MAXIMUM CONCENTRATION CHANGES FOR EACH ITERATION:
  MAX. CHANGE LAYER,ROW,COL MAX. CHANGE LAYER,ROW,COL MAX. CHANGE LAYER,ROW,COL MAX. CHANGE LAYER,ROW,COL MAX. CHANGE LAYER,ROW,COL
 ------------------------------------------------------------------------------------------------------------------------------------
   0.8556     (  7,  8,  3)  0.3300E-02 (  8,  8,  2)  0.2988E-04 (  8,  9,  1)  0.1425E-06 (  8,  6,  4)


                                          ================================================
                                                         TIME STEP NO.  003
                                          ================================================

 FROM TIME =   20.000     TO    30.000    



     1 CALLS TO GCG PACKAGE FOR TRANSPORT TIME STEP     1 IN FLOW TIME STEP     3 STRESS PERIOD     1
      4 TOTAL ITERATIONS
  MAXIMUM CONCENTRATION CHANGES FOR EACH ITERATION:
  MAX. CHANGE LAYER,ROW,COL MAX. CHANGE LAYER,ROW,COL MAX. CHANGE LAYER,ROW,COL MAX. CHANGE LAYER,ROW,COL MAX. CHANGE LAYER,ROW,COL
 ------------------------------------------------------------------------------------------------------------------------------------
   0.4296     (  7,  8,  3)  0.1671E-02 (  8,  8,  2)  0.1480E-04 (  8,  9,  1)  0.6979E-07 (  8,  6,  4)


                                          ================================================
                                                         TIME STEP NO.  004
                                          ================================================

 FROM TIME =   30.000     TO    40.000    



     1 CALLS TO GCG PACKAGE FOR TRANSPORT TIME STEP     1 IN FLOW TIME STEP     4 STRESS PERIOD     1
      3 TOTAL ITERATIONS
  MAXIMUM CONCENTRATION CHANGES FOR EACH ITERATION:
  MAX. CHANGE LAYER,ROW,COL MAX. CHANGE LAYER,ROW,COL MAX. CHANGE LAYER,ROW,COL MAX. CHANGE LAYER,ROW,COL MAX. CHANGE LAYER,ROW,COL
 ------------------------------------------------------------------------------------------------------------------------------------
   0.2978     (  7,  8,  3)  0.1161E-02 (  8,  8,  2)  0.9988E-05 (  8,  9,  1)


                                          ================================================
                                                         TIME STEP NO.  005
                                          ================================================

 FROM TIME =   40.000     TO    50.000    



     1 CALLS TO GCG PACKAGE FOR TRANSPORT TIME STEP     1 IN FLOW TIME STEP     5 STRESS PERIOD     1
      3 TOTAL ITERATIONS
  MAXIMUM CONCENTRATION CHANGES FOR EACH ITERATION:
  MAX. CHANGE LAYER,ROW,COL MAX. CHANGE LAYER,ROW,COL MAX. CHANGE LAYER,ROW,COL MAX. CHANGE LAYER,ROW,COL MAX. CHANGE LAYER,ROW,COL
 ------------------------------------------------------------------------------------------------------------------------------------
   0.2372     (  7,  8,  3)  0.9338E-03 (  6,  8,  4)  0.7736E-05 (  8,  9,  1)


                                          ================================================
                                                         TIME STEP NO.  006
                                          ================================================

 FROM TIME =   50.000     TO    60.000    



     1 CALLS TO GCG PACKAGE FOR TRANSPORT TIME STEP     1 IN FLOW TIME STEP     6 STRESS PERIOD     1
      3 TOTAL ITERATIONS
  MAXIMUM CONCENTRATION CHANGES FOR EACH ITERATION:
  MAX. CHANGE LAYER,ROW,COL MAX. CHANGE LAYER,ROW,COL MAX. CHANGE LAYER,ROW,COL MAX. CHANGE LAYER,ROW,COL MAX. CHANGE LAYER,ROW,COL
 ------------------------------------------------------------------------------------------------------------------------------------
   0.2039     (  7,  8,  3)  0.8139E-03 (  6,  8,  4)  0.6498E-05 (  8,  9,  1)


                                          ================================================
                                                         TIME STEP NO.  007
                                          ================================================

 FROM TIME =   60.000     TO    70.000    



     1 CALLS TO GCG PACKAGE FOR TRANSPORT TIME STEP     1 IN FLOW TIME STEP     7 STRESS PERIOD     1
      3 TOTAL ITERATIONS
  MAXIMUM CONCENTRATION CHANGES FOR EACH ITERATION:
  MAX. CHANGE LAYER,ROW,COL MAX. CHANGE LAYER,ROW,COL MAX. CHANGE LAYER,ROW,COL MAX. CHANGE LAYER,ROW,COL MAX. CHANGE LAYER,ROW,COL
 ------------------------------------------------------------------------------------------------------------------------------------
   0.1834     (  7,  8,  3)  0.7430E-03 (  6,  8,  4)  0.5753E-05 (  8,  9,  1)


                                          ================================================
                                                         TIME STEP NO.  008
                                          ================================================

 FROM TIME =   70.000     TO    80.000    



     1 CALLS TO GCG PACKAGE FOR TRANSPORT TIME STEP     1 IN FLOW TIME STEP     8 STRESS PERIOD     1
      3 TOTAL ITERATIONS
  MAXIMUM CONCENTRATION CHANGES FOR EACH ITERATION:
  MAX. CHANGE LAYER,ROW,COL MAX. CHANGE LAYER,ROW,COL MAX. CHANGE LAYER,ROW,COL MAX. CHANGE LAYER,ROW,COL MAX. CHANGE LAYER,ROW,COL
 ------------------------------------------------------------------------------------------------------------------------------------
   0.1699     (  7,  8,  3)  0.6978E-03 (  6,  8,  4)  0.5275E-05 (  8,  9,  1)


                                          ================================================
                                                         TIME STEP NO.  009
                                          ================================================

 FROM TIME =   80.000     TO    90.000    



     1 CALLS TO GCG PACKAGE FOR TRANSPORT TIME STEP     1 IN FLOW TIME STEP     9 STRESS PERIOD     1
      3 TOTAL ITERATIONS
  MAXIMUM CONCENTRATION CHANGES FOR EACH ITERATION:
  MAX. CHANGE LAYER,ROW,COL MAX. CHANGE LAYER,ROW,COL MAX. CHANGE LAYER,ROW,COL MAX. CHANGE LAYER,ROW,COL MAX. CHANGE LAYER,ROW,COL
 ------------------------------------------------------------------------------------------------------------------------------------
   0.1605     (  7,  8,  3)  0.6663E-03 (  6,  8,  4)  0.4952E-05 (  8,  9,  1)


                                          ================================================
                                                         TIME STEP NO.  010
                                          ================================================

 FROM TIME =   90.000     TO    100.00    



     1 CALLS TO GCG PACKAGE FOR TRANSPORT TIME STEP     1 IN FLOW TIME STEP    10 STRESS PERIOD     1
      3 TOTAL ITERATIONS
  MAXIMUM CONCENTRATION CHANGES FOR EACH ITERATION:
  MAX. CHANGE LAYER,ROW,COL MAX. CHANGE LAYER,ROW,COL MAX. CHANGE LAYER,ROW,COL MAX. CHANGE LAYER,ROW,COL MAX. CHANGE LAYER,ROW,COL
 ------------------------------------------------------------------------------------------------------------------------------------
   0.1537     (  7,  8,  3)  0.6442E-03 (  6,  8,  4)  0.4755E-05 (  6,  7,  5)



 >>>>>>>>>>>>>>>>>>>>>>>>>>>>>>>>>>>>>>>>>>>>>>>>>>>>>>>FOR COMPONENT NO. 01<<<<<<<<<<<<<<<<<<<<<<<<<<<<<<<<<<<<<<<<<<<<<<<<<<<<<<<


                                            -------------------------------------------
                                                      TRANSPORT STEP NO.    1
                                            -------------------------------------------

 TOTAL ELAPSED TIME SINCE BEGINNING OF SIMULATION =   100.0000    D   
 .....................................................................

                     CUMULATIVE MASS BUDGETS AT END OF TRANSPORT STEP    1, TIME STEP   10, STRESS PERIOD    1
                     -----------------------------------------------------------------------------------------

                                                             IN                           OUT
                                                      ----------------             ----------------
                               CONSTANT CONCENTRATION:    0.000000                    0.000000    
                                        CONSTANT HEAD:    0.000000                  -0.2374537E-07
                                                WELLS:    5000.000                    0.000000    
                               MASS STOR (FLOW MODEL):    0.000000                    0.000000    
                                MASS STORAGE (SOLUTE):    0.000000                   -4999.992    
                            ---------------------------------------------------------------------------
                                              [TOTAL]:    5000.000     KG            -4999.992     KG  

                                                          NET (IN - OUT):   0.7812500E-02
                                                   DISCREPANCY (PERCENT):   0.1562501E-03
  ----- 
 | M T |
 | 3 D | END OF MODEL OUTPUT
  ----- 
