                                   MODFLOW 6
                U.S. GEOLOGICAL SURVEY MODULAR HYDROLOGIC MODEL
                          GROUNDWATER FLOW MODEL (GWF)
                            VERSION 6.6.1 02/10/2025

   MODFLOW 6 compiled Feb 14 2025 13:40:10 with Intel(R) Fortran Intel(R) 64
   Compiler Classic for applications running on Intel(R) 64, Version 2021.7.0
                             Build 20220726_000000

This software has been approved for release by the U.S. Geological 
Survey (USGS). Although the software has been subjected to rigorous 
review, the USGS reserves the right to update the software as needed 
pursuant to further analysis and review. No warranty, expressed or 
implied, is made by the USGS or the U.S. Government as to the 
functionality of the software and related material nor shall the 
fact of release constitute any such warranty. Furthermore, the 
software is released on condition that neither the USGS nor the U.S. 
Government shall be held liable for any damages resulting from its 
authorized or unauthorized use. Also refer to the USGS Water 
Resources Software User Rights Notice for complete use, copyright, 
and distribution information.


As a work of the United States Government, this USGS product is 
in the public domain within the United States. You can copy, 
modify, distribute, and perform the work, even for commercial 
purposes, all without asking permission. Additionally, USGS 
waives copyright and related rights in the work worldwide 
through CC0 1.0 Universal Public Domain Dedication 
(https://creativecommons.org/publicdomain/zero/1.0/).

The following GNU Lesser General Public License (LGPL) libraries
are used in this USGS product:

    SPARSKIT version 2.0
      ilut, luson, and qsplit 
      (https://www-users.cse.umn.edu/~saad/software/SPARSKIT/)

    RCM - Reverse Cuthill McKee Ordering
      (https://people.math.sc.edu/Burkardt/f_src/rcm/rcm.html)

    BLAS - Basic Linear Algebra Subprograms Level 1
      (https://people.math.sc.edu/Burkardt/f_src/blas1_d/blas1_d.html)

    SPARSEKIT - Sparse Matrix Utility Package
      amux, dperm, dvperm, rperm, and cperm
      (https://people.sc.fsu.edu/~jburkardt/f77_src/sparsekit/sparsekit.html)

The following BSD-3 License libraries are used in this USGS product:

    Modern Fortran DAG Library
      Copyright (c) 2018, Jacob Williams
      All rights reserved.
      (https://github.com/jacobwilliams/daglib)

MODFLOW 6 compiler options: /O2 /heap-arrays:0 /fpe:0 /traceback /nologo /fpp
/c /module:win64\mod_mf6\ /object:win64\obj_mf6\

System command used to initiate simulation:
C:\Users\gross.DESKTOP-AIRQM2M\anaconda3\Scripts\mf6.exe

MODFLOW was compiled using uniform precision.

Real Variables
  KIND: 8
  TINY (smallest non-zero value):    2.225074-308
  HUGE (largest value):    1.797693+308
  PRECISION: 15
  SIZE IN BITS: 64

Integer Variables
  KIND: 4
  HUGE (largest value): 2147483647
  SIZE IN BITS: 32

Long Integer Variables
  KIND: 8
  HUGE (largest value): 9223372036854775807
  SIZE IN BITS: 64

Logical Variables
  KIND: 4
  SIZE IN BITS: 32
 
 NAMEFILE OPTIONS:
    STRESS PACKAGE INPUT WILL BE PRINTED FOR ALL MODEL STRESS PACKAGES
    PACKAGE FLOWS WILL BE PRINTED FOR ALL MODEL PACKAGES
    FLOWS WILL BE SAVED TO BUDGET FILE SPECIFIED IN OUTPUT CONTROL
 END NAMEFILE OPTIONS:

 DIS -- STRUCTURED GRID DISCRETIZATION PACKAGE, VERSION 2 : 3/27/2014 - INPUT READ FROM MEMPATH: __INPUT__/FREYBERG_2/DIS                          


 NPF -- NODE PROPERTY FLOW PACKAGE, VERSION 1, 3/30/2015 INPUT READ FROM MEMPATH: __INPUT__/FREYBERG_2/NPF                          


 IC -- Initial Conditions Package, Version 8, 3/28/2015 input read from mempath: __INPUT__/FREYBERG_2/IC                           


 Setting Discretization Options
    Model length unit [0=UND, 1=FEET, 2=METERS, 3=CENTIMETERS] set as 2
    XORIGIN = 250.0000000000000
    YORIGIN = 500.0000000000000
 End Setting Discretization Options

 Setting Discretization Dimensions
    NLAY = 1
    NROW = 38
    NCOL = 19
 End Setting Discretization Dimensions

 Setting Discretization Griddata
    DELR set from input file
    DELC set from input file
    TOP set from input file
    BOTM set from input file
    IDOMAIN set from input file
 End Setting Discretization Griddata


 The specified IDOMAIN results in a reduced number of cells.
 Number of user nodes: 722
 Number of nodes in solution: 366


 Setting NPF Options
    Cell-by-cell flow information will be saved to binary file whenever ICBCFL is not zero.
    Specific discharge will be calculated at cell centers and written to DATA-SPDIS in budget file when requested.
 End Setting NPF Options

 Setting NPF Griddata
    ICELLTYPE set from input file
    K set from input file
    K33 not provided.  Setting K33 = K.
    K22 not provided.  Setting K22 = K.
 End Setting NPF Griddata


 WEL   -- WEL PACKAGE, VERSION 8, 2/22/2014 INPUT READ FROM MEMPATH: __INPUT__/FREYBERG_2/WEL-1                        

 PROCESSING WEL BASE OPTIONS
    FLOWS WILL BE SAVED TO BUDGET FILE SPECIFIED IN OUTPUT CONTROL
    LISTS OF WEL CELLS WILL BE PRINTED.
    WEL FLOWS WILL BE PRINTED TO LISTING FILE.
 END OF WEL BASE OPTIONS

 PROCESSING WEL OPTIONS
 END OF WEL OPTIONS

 PROCESSING WEL BASE DIMENSIONS
    MAXBOUND =       6
 END OF WEL BASE DIMENSIONS

 RIV   -- RIV PACKAGE, VERSION 8, 2/22/2014 INPUT READ FROM MEMPATH: __INPUT__/FREYBERG_2/RIV-1                        

 PROCESSING RIV BASE OPTIONS
    FLOWS WILL BE SAVED TO BUDGET FILE SPECIFIED IN OUTPUT CONTROL
    LISTS OF RIV CELLS WILL BE PRINTED.
    RIV FLOWS WILL BE PRINTED TO LISTING FILE.
 END OF RIV BASE OPTIONS

 PROCESSING RIV OPTIONS
 END OF RIV OPTIONS

 PROCESSING RIV BASE DIMENSIONS
    MAXBOUND =      40
 END OF RIV BASE DIMENSIONS

 RCH   -- RCH PACKAGE, VERSION 8, 2/22/2014 INPUT READ FROM MEMPATH: __INPUT__/FREYBERG_2/RCH-1                        

 PROCESSING RCH BASE OPTIONS
    FLOWS WILL BE SAVED TO BUDGET FILE SPECIFIED IN OUTPUT CONTROL
    LISTS OF RCH CELLS WILL BE PRINTED.
    RCH FLOWS WILL BE PRINTED TO LISTING FILE.
 END OF RCH BASE OPTIONS

 PROCESSING RCHA OPTIONS
    RECHARGE INPUT WILL BE READ AS ARRAY(S).
 END OF RCHA OPTIONS
    STRT set from input file

 STO -- STORAGE PACKAGE, VERSION 1, 5/19/2014 INPUT READ FROM MEMPATH: __INPUT__/FREYBERG_2/STO                          


 PROCESSING STORAGE OPTIONS
    CELL-BY-CELL FLOW INFORMATION WILL BE SAVED TO BINARY FILE WHENEVER ICBCFL IS NOT ZERO.
 END OF STORAGE OPTIONS
    BINARY GRID INFORMATION WILL BE WRITTEN TO:
      UNIT NUMBER: 1031
      FILE NAME: freyberg_2.dis.grb

 OPENED freyberg_2.dis.grb
 FILE TYPE:DATA(BINARY)   UNIT 1031   STATUS:REPLACE             
 FORMAT:UNFORMATTED            ACCESS:STREAM              
 ACTION:READWRITE           

      THE LAST TIME STEP WILL BE PRINTED
      THE LAST TIME STEP WILL BE PRINTED
 # File generated by Flopy version 3.10.0.dev3 on 06/15/2025 at 07:20:20.

 PROCESSING OC OPTIONS

    BUDGET INFORMATION WILL BE WRITTEN TO:
      UNIT NUMBER: 1032
      FILE NAME: freyberg_2.cbc

 OPENED freyberg_2.cbc
 FILE TYPE:DATA(BINARY)   UNIT 1032   STATUS:REPLACE             
 FORMAT:UNFORMATTED            ACCESS:STREAM              
 ACTION:READWRITE           

    HEAD INFORMATION WILL BE WRITTEN TO:
      UNIT NUMBER: 1033
      FILE NAME: freyberg_2.hds

 OPENED freyberg_2.hds
 FILE TYPE:DATA(BINARY)   UNIT 1033   STATUS:REPLACE             
 FORMAT:UNFORMATTED            ACCESS:STREAM              
 ACTION:READWRITE           

 END OF OC OPTIONS

start timestep kper="1" kstp="1" mode="normal"


 BEGIN READING OUTPUT CONTROL FOR STRESS PERIOD 1
      ALL TIME STEPS WILL BE SAVED
      ALL TIME STEPS WILL BE SAVED
      ALL TIME STEPS WILL BE PRINTED

 END READING OUTPUT CONTROL FOR STRESS PERIOD 1


 PROCESSING STORAGE PERIOD DATA
 END PROCESSING STORAGE PERIOD DATA


 STRESS PERIOD 1 IS STEADY-STATE

 ----------------------------------
  WEL NO.    LAYER    ROW     COL  
 ----------------------------------
     1         1       8      16   
     2         1       9      18   
     3         1      15       7   
 ----------------------------------


 ----------------------------------
  RIV NO.    LAYER    ROW     COL  
 ----------------------------------
     1         1       1      14   
     2         1       2      14   
     3         1       3      13   
     4         1       4      12   
     5         1       5      10   
     6         1       6       8   
     7         1       7       5   
     8         1       8       2   
     9         1       8      15   
     10        1       9       8   
     11        1      10       1   
     12        1      10      13   
     13        1      11       6   
     14        1      11      18   
     15        1      12      11   
     16        1      13       4   
     17        1      13      15   
     18        1      14       7   
     19        1      14      17   
     20        1      15       8   
     21        1      15      17   
     22        1      16       7   
     23        1      16      15   
     24        1      17       4   
     25        1      17      11   
     26        1      17      18   
     27        1      18       5   
     28        1      18      11   
 ----------------------------------


 ----------------------------------
  RCH NO.    LAYER    ROW     COL  
 ----------------------------------
     1         1       1       1   
     2         1       1       2   
     3         1       1       3   
     4         1       1       4   
     5         1       1       5   
     6         1       1       6   
     7         1       1       7   
     8         1       1       8   
     9         1       1       9   
     10        1       1      10   
     11        1       1      11   
     12        1       1      12   
     13        1       1      13   
     14        1       1      14   
     15        1       1      15   
     16        1       1      16   
     17        1       1      17   
     18        1       1      18   
     19        1       1      19   
     20        1       2       1   
     21        1       2       2   
     22        1       2       3   
     23        1       2       4   
     24        1       2       5   
     25        1       2       6   
     26        1       2       7   
     27        1       2       8   
     28        1       2       9   
     29        1       2      10   
     30        1       2      11   
     31        1       2      12   
     32        1       2      13   
     33        1       2      14   
     34        1       2      15   
     35        1       2      16   
     36        1       2      17   
     37        1       2      18   
     38        1       2      19   
     39       -1      -1      -1   
     40        1       3       1   
     41        1       3       2   
     42        1       3       3   
     43        1       3       4   
     44        1       3       5   
     45        1       3       6   
     46        1       3       7   
     47        1       3       8   
     48        1       3       9   
     49        1       3      10   
     50        1       3      11   
     51        1       3      12   
     52        1       3      13   
     53        1       3      14   
     54        1       3      15   
     55        1       3      16   
     56        1       3      17   
     57        1       3      18   
     58       -1      -1      -1   
     59        1       3      19   
     60        1       4       1   
     61        1       4       2   
     62        1       4       3   
     63        1       4       4   
     64        1       4       5   
     65        1       4       6   
     66        1       4       7   
     67        1       4       8   
     68        1       4       9   
     69        1       4      10   
     70        1       4      11   
     71        1       4      12   
     72        1       4      13   
     73        1       4      14   
     74        1       4      15   
     75        1       4      16   
     76        1       4      17   
     77       -1      -1      -1   
     78       -1      -1      -1   
     79        1       4      18   
     80        1       4      19   
     81        1       5       1   
     82        1       5       2   
     83        1       5       3   
     84        1       5       4   
     85        1       5       5   
     86        1       5       6   
     87        1       5       7   
     88        1       5       8   
     89        1       5       9   
     90        1       5      10   
     91        1       5      11   
     92        1       5      12   
     93        1       5      13   
     94        1       5      14   
     95        1       5      15   
     96       -1      -1      -1   
     97       -1      -1      -1   
     98        1       5      16   
     99        1       5      17   
    100        1       5      18   
    101        1       5      19   
    102        1       6       1   
    103        1       6       2   
    104        1       6       3   
    105        1       6       4   
    106        1       6       5   
    107        1       6       6   
    108        1       6       7   
    109        1       6       8   
    110        1       6       9   
    111        1       6      10   
    112        1       6      11   
    113        1       6      12   
    114        1       6      13   
    115       -1      -1      -1   
    116       -1      -1      -1   
    117       -1      -1      -1   
    118        1       6      14   
    119        1       6      15   
    120        1       6      16   
    121        1       6      17   
    122        1       6      18   
    123        1       6      19   
    124        1       7       1   
    125        1       7       2   
    126        1       7       3   
    127        1       7       4   
    128        1       7       5   
    129        1       7       6   
    130        1       7       7   
    131        1       7       8   
    132        1       7       9   
    133        1       7      10   
    134       -1      -1      -1   
    135       -1      -1      -1   
    136       -1      -1      -1   
    137        1       7      11   
    138        1       7      12   
    139        1       7      13   
    140        1       7      14   
    141        1       7      15   
    142        1       7      16   
    143        1       7      17   
    144        1       7      18   
    145        1       7      19   
    146        1       8       1   
    147        1       8       2   
    148        1       8       3   
    149        1       8       4   
    150        1       8       5   
    151        1       8       6   
    152        1       8       7   
    153       -1      -1      -1   
    154       -1      -1      -1   
    155       -1      -1      -1   
    156       -1      -1      -1   
    157       -1      -1      -1   
    158       -1      -1      -1   
    159        1       8       8   
    160        1       8       9   
    161        1       8      10   
    162        1       8      11   
    163        1       8      12   
    164        1       8      13   
    165        1       8      14   
    166        1       8      15   
    167        1       8      16   
    168        1       8      17   
    169        1       8      18   
    170        1       8      19   
    171        1       9       1   
    172       -1      -1      -1   
    173       -1      -1      -1   
    174       -1      -1      -1   
    175       -1      -1      -1   
    176       -1      -1      -1   
    177       -1      -1      -1   
    178       -1      -1      -1   
    179        1       9       2   
    180        1       9       3   
    181        1       9       4   
    182        1       9       5   
    183        1       9       6   
    184        1       9       7   
    185        1       9       8   
    186        1       9       9   
    187        1       9      10   
    188        1       9      11   
    189        1       9      12   
    190        1       9      13   
    191       -1      -1      -1   
    192       -1      -1      -1   
    193       -1      -1      -1   
    194       -1      -1      -1   
    195       -1      -1      -1   
    196       -1      -1      -1   
    197       -1      -1      -1   
    198        1       9      14   
    199        1       9      15   
    200        1       9      16   
    201        1       9      17   
    202        1       9      18   
    203        1       9      19   
    204        1      10       1   
    205        1      10       2   
    206        1      10       3   
    207        1      10       4   
    208        1      10       5   
    209        1      10       6   
    210       -1      -1      -1   
    211       -1      -1      -1   
    212       -1      -1      -1   
    213       -1      -1      -1   
    214       -1      -1      -1   
    215       -1      -1      -1   
    216       -1      -1      -1   
    217        1      10       7   
    218        1      10       8   
    219        1      10       9   
    220        1      10      10   
    221        1      10      11   
    222        1      10      12   
    223        1      10      13   
    224        1      10      14   
    225        1      10      15   
    226        1      10      16   
    227        1      10      17   
    228        1      10      18   
    229       -1      -1      -1   
    230       -1      -1      -1   
    231       -1      -1      -1   
    232       -1      -1      -1   
    233       -1      -1      -1   
    234       -1      -1      -1   
    235       -1      -1      -1   
    236        1      10      19   
    237        1      11       1   
    238        1      11       2   
    239        1      11       3   
    240        1      11       4   
    241        1      11       5   
    242        1      11       6   
    243        1      11       7   
    244        1      11       8   
    245        1      11       9   
    246        1      11      10   
    247        1      11      11   
    248       -1      -1      -1   
    249       -1      -1      -1   
    250       -1      -1      -1   
    251       -1      -1      -1   
    252       -1      -1      -1   
    253       -1      -1      -1   
    254       -1      -1      -1   
    255        1      11      12   
    256        1      11      13   
    257        1      11      14   
    258        1      11      15   
    259        1      11      16   
    260        1      11      17   
    261        1      11      18   
    262        1      11      19   
    263        1      12       1   
    264        1      12       2   
    265        1      12       3   
    266        1      12       4   
    267       -1      -1      -1   
    268       -1      -1      -1   
    269       -1      -1      -1   
    270       -1      -1      -1   
    271       -1      -1      -1   
    272       -1      -1      -1   
    273       -1      -1      -1   
    274        1      12       5   
    275        1      12       6   
    276        1      12       7   
    277        1      12       8   
    278        1      12       9   
    279        1      12      10   
    280        1      12      11   
    281        1      12      12   
    282        1      12      13   
    283        1      12      14   
    284        1      12      15   
    285        1      12      16   
    286       -1      -1      -1   
    287       -1      -1      -1   
    288       -1      -1      -1   
    289       -1      -1      -1   
    290       -1      -1      -1   
    291       -1      -1      -1   
    292       -1      -1      -1   
    293        1      12      17   
    294        1      12      18   
    295        1      12      19   
    296        1      13       1   
    297        1      13       2   
    298        1      13       3   
    299        1      13       4   
    300        1      13       5   
    301        1      13       6   
    302        1      13       7   
    303        1      13       8   
    304        1      13       9   
    305       -1      -1      -1   
    306       -1      -1      -1   
    307       -1      -1      -1   
    308       -1      -1      -1   
    309       -1      -1      -1   
    310       -1      -1      -1   
    311       -1      -1      -1   
    312       -1      -1      -1   
    313        1      13      10   
    314        1      13      11   
    315        1      13      12   
    316        1      13      13   
    317        1      13      14   
    318        1      13      15   
    319        1      13      16   
    320        1      13      17   
    321        1      13      18   
    322        1      13      19   
    323        1      14       1   
    324       -1      -1      -1   
    325       -1      -1      -1   
    326       -1      -1      -1   
    327       -1      -1      -1   
    328       -1      -1      -1   
    329       -1      -1      -1   
    330       -1      -1      -1   
    331       -1      -1      -1   
    332        1      14       2   
    333        1      14       3   
    334        1      14       4   
    335        1      14       5   
    336        1      14       6   
    337        1      14       7   
    338        1      14       8   
    339        1      14       9   
    340        1      14      10   
    341        1      14      11   
    342        1      14      12   
    343       -1      -1      -1   
    344       -1      -1      -1   
    345       -1      -1      -1   
    346       -1      -1      -1   
    347       -1      -1      -1   
    348       -1      -1      -1   
    349       -1      -1      -1   
    350       -1      -1      -1   
    351       -1      -1      -1   
    352        1      14      13   
    353        1      14      14   
    354        1      14      15   
    355        1      14      16   
    356        1      14      17   
    357        1      14      18   
    358        1      14      19   
    359        1      15       1   
    360        1      15       2   
    361        1      15       3   
    362       -1      -1      -1   
    363       -1      -1      -1   
    364       -1      -1      -1   
    365       -1      -1      -1   
    366       -1      -1      -1   
    367       -1      -1      -1   
    368       -1      -1      -1   
    369       -1      -1      -1   
    370       -1      -1      -1   
    371        1      15       4   
    372        1      15       5   
    373        1      15       6   
    374        1      15       7   
    375        1      15       8   
    376        1      15       9   
    377        1      15      10   
    378        1      15      11   
    379        1      15      12   
    380        1      15      13   
    381       -1      -1      -1   
    382       -1      -1      -1   
    383       -1      -1      -1   
    384       -1      -1      -1   
    385       -1      -1      -1   
    386       -1      -1      -1   
    387       -1      -1      -1   
    388       -1      -1      -1   
    389       -1      -1      -1   
    390       -1      -1      -1   
    391        1      15      14   
    392        1      15      15   
    393        1      15      16   
    394        1      15      17   
    395        1      15      18   
    396        1      15      19   
    397        1      16       1   
    398        1      16       2   
    399        1      16       3   
    400       -1      -1      -1   
    401       -1      -1      -1   
    402       -1      -1      -1   
    403       -1      -1      -1   
    404       -1      -1      -1   
    405       -1      -1      -1   
    406       -1      -1      -1   
    407       -1      -1      -1   
    408       -1      -1      -1   
    409       -1      -1      -1   
    410        1      16       4   
    411        1      16       5   
    412        1      16       6   
    413        1      16       7   
    414        1      16       8   
    415        1      16       9   
    416        1      16      10   
    417        1      16      11   
    418        1      16      12   
    419       -1      -1      -1   
    420       -1      -1      -1   
    421       -1      -1      -1   
    422       -1      -1      -1   
    423       -1      -1      -1   
    424       -1      -1      -1   
    425       -1      -1      -1   
    426       -1      -1      -1   
    427       -1      -1      -1   
    428       -1      -1      -1   
    429       -1      -1      -1   
    430        1      16      13   
    431        1      16      14   
    432        1      16      15   
    433        1      16      16   
    434        1      16      17   
    435        1      16      18   
    436        1      16      19   
    437        1      17       1   
    438       -1      -1      -1   
    439       -1      -1      -1   
    440       -1      -1      -1   
    441       -1      -1      -1   
    442       -1      -1      -1   
    443       -1      -1      -1   
    444       -1      -1      -1   
    445       -1      -1      -1   
    446       -1      -1      -1   
    447       -1      -1      -1   
    448       -1      -1      -1   
    449        1      17       2   
    450        1      17       3   
    451        1      17       4   
    452        1      17       5   
    453        1      17       6   
    454        1      17       7   
    455        1      17       8   
    456        1      17       9   
    457       -1      -1      -1   
    458       -1      -1      -1   
    459       -1      -1      -1   
    460       -1      -1      -1   
    461       -1      -1      -1   
    462       -1      -1      -1   
    463       -1      -1      -1   
    464       -1      -1      -1   
    465       -1      -1      -1   
    466       -1      -1      -1   
    467       -1      -1      -1   
    468       -1      -1      -1   
    469        1      17      10   
    470        1      17      11   
    471        1      17      12   
    472        1      17      13   
    473        1      17      14   
    474        1      17      15   
    475        1      17      16   
    476       -1      -1      -1   
    477       -1      -1      -1   
    478       -1      -1      -1   
    479       -1      -1      -1   
    480       -1      -1      -1   
    481       -1      -1      -1   
    482       -1      -1      -1   
    483       -1      -1      -1   
    484       -1      -1      -1   
    485       -1      -1      -1   
    486       -1      -1      -1   
    487       -1      -1      -1   
    488        1      17      17   
    489        1      17      18   
    490        1      17      19   
    491        1      18       1   
    492        1      18       2   
    493        1      18       3   
    494        1      18       4   
    495       -1      -1      -1   
    496       -1      -1      -1   
    497       -1      -1      -1   
    498       -1      -1      -1   
    499       -1      -1      -1   
    500       -1      -1      -1   
    501       -1      -1      -1   
    502       -1      -1      -1   
    503       -1      -1      -1   
    504       -1      -1      -1   
    505       -1      -1      -1   
    506       -1      -1      -1   
    507       -1      -1      -1   
    508        1      18       5   
    509        1      18       6   
    510        1      18       7   
    511        1      18       8   
    512        1      18       9   
    513        1      18      10   
    514       -1      -1      -1   
    515       -1      -1      -1   
    516       -1      -1      -1   
    517       -1      -1      -1   
    518       -1      -1      -1   
    519       -1      -1      -1   
    520       -1      -1      -1   
    521       -1      -1      -1   
    522       -1      -1      -1   
    523       -1      -1      -1   
    524       -1      -1      -1   
    525       -1      -1      -1   
    526       -1      -1      -1   
    527        1      18      11   
    528        1      18      12   
    529        1      18      13   
    530        1      18      14   
    531        1      18      15   
    532        1      18      16   
    533       -1      -1      -1   
    534       -1      -1      -1   
    535       -1      -1      -1   
    536       -1      -1      -1   
    537       -1      -1      -1   
    538       -1      -1      -1   
    539       -1      -1      -1   
    540       -1      -1      -1   
    541       -1      -1      -1   
    542       -1      -1      -1   
    543       -1      -1      -1   
    544       -1      -1      -1   
    545       -1      -1      -1   
    546       -1      -1      -1   
    547        1      18      17   
    548        1      18      18   
    549        1      18      19   
    550        1      19       1   
    551        1      19       2   
    552       -1      -1      -1   
    553       -1      -1      -1   
    554       -1      -1      -1   
    555       -1      -1      -1   
    556       -1      -1      -1   
    557       -1      -1      -1   
    558       -1      -1      -1   
    559       -1      -1      -1   
    560       -1      -1      -1   
    561       -1      -1      -1   
    562       -1      -1      -1   
    563       -1      -1      -1   
    564       -1      -1      -1   
    565       -1      -1      -1   
    566        1      19       3   
    567        1      19       4   
    568        1      19       5   
    569        1      19       6   
    570        1      19       7   
    571       -1      -1      -1   
    572       -1      -1      -1   
    573       -1      -1      -1   
    574       -1      -1      -1   
    575       -1      -1      -1   
    576       -1      -1      -1   
    577       -1      -1      -1   
    578       -1      -1      -1   
    579       -1      -1      -1   
    580       -1      -1      -1   
    581       -1      -1      -1   
    582       -1      -1      -1   
    583       -1      -1      -1   
    584       -1      -1      -1   
    585       -1      -1      -1   
    586        1      19       8   
    587        1      19       9   
    588        1      19      10   
    589        1      19      11   
    590       -1      -1      -1   
    591       -1      -1      -1   
    592       -1      -1      -1   
    593       -1      -1      -1   
    594       -1      -1      -1   
    595       -1      -1      -1   
    596       -1      -1      -1   
    597       -1      -1      -1   
    598       -1      -1      -1   
    599       -1      -1      -1   
    600       -1      -1      -1   
    601       -1      -1      -1   
    602       -1      -1      -1   
    603       -1      -1      -1   
    604       -1      -1      -1   
    605        1      19      12   
    606        1      19      13   
    607        1      19      14   
    608        1      19      15   
    609       -1      -1      -1   
    610       -1      -1      -1   
    611       -1      -1      -1   
    612       -1      -1      -1   
    613       -1      -1      -1   
    614       -1      -1      -1   
    615       -1      -1      -1   
    616       -1      -1      -1   
    617       -1      -1      -1   
    618       -1      -1      -1   
    619       -1      -1      -1   
    620       -1      -1      -1   
    621       -1      -1      -1   
    622       -1      -1      -1   
    623       -1      -1      -1   
    624       -1      -1      -1   
    625        1      19      16   
    626        1      19      17   
    627        1      19      18   
    628       -1      -1      -1   
    629       -1      -1      -1   
    630       -1      -1      -1   
    631       -1      -1      -1   
    632       -1      -1      -1   
    633       -1      -1      -1   
    634       -1      -1      -1   
    635       -1      -1      -1   
    636       -1      -1      -1   
    637       -1      -1      -1   
    638       -1      -1      -1   
    639       -1      -1      -1   
    640       -1      -1      -1   
    641       -1      -1      -1   
    642       -1      -1      -1   
    643       -1      -1      -1   
    644        1      19      19   
    645        1      20       1   
    646        1      20       2   
    647       -1      -1      -1   
    648       -1      -1      -1   
    649       -1      -1      -1   
    650       -1      -1      -1   
    651       -1      -1      -1   
    652       -1      -1      -1   
    653       -1      -1      -1   
    654       -1      -1      -1   
    655       -1      -1      -1   
    656       -1      -1      -1   
    657       -1      -1      -1   
    658       -1      -1      -1   
    659       -1      -1      -1   
    660       -1      -1      -1   
    661       -1      -1      -1   
    662       -1      -1      -1   
    663       -1      -1      -1   
    664        1      20       3   
    665        1      20       4   
    666       -1      -1      -1   
    667       -1      -1      -1   
    668       -1      -1      -1   
    669       -1      -1      -1   
    670       -1      -1      -1   
    671       -1      -1      -1   
    672       -1      -1      -1   
    673       -1      -1      -1   
    674       -1      -1      -1   
    675       -1      -1      -1   
    676       -1      -1      -1   
    677       -1      -1      -1   
    678       -1      -1      -1   
    679       -1      -1      -1   
    680       -1      -1      -1   
    681       -1      -1      -1   
    682       -1      -1      -1   
    683        1      20       5   
    684       -1      -1      -1   
    685       -1      -1      -1   
    686       -1      -1      -1   
    687       -1      -1      -1   
    688       -1      -1      -1   
    689       -1      -1      -1   
    690       -1      -1      -1   
    691       -1      -1      -1   
    692       -1      -1      -1   
    693       -1      -1      -1   
    694       -1      -1      -1   
    695       -1      -1      -1   
    696       -1      -1      -1   
    697       -1      -1      -1   
    698       -1      -1      -1   
    699       -1      -1      -1   
    700       -1      -1      -1   
    701       -1      -1      -1   
    702       -1      -1      -1   
    703       -1      -1      -1   
    704       -1      -1      -1   
    705       -1      -1      -1   
    706       -1      -1      -1   
    707       -1      -1      -1   
    708       -1      -1      -1   
    709       -1      -1      -1   
    710       -1      -1      -1   
    711       -1      -1      -1   
    712       -1      -1      -1   
    713       -1      -1      -1   
    714       -1      -1      -1   
    715       -1      -1      -1   
    716       -1      -1      -1   
    717       -1      -1      -1   
    718       -1      -1      -1   
    719       -1      -1      -1   
    720       -1      -1      -1   
    721       -1      -1      -1   
    722       -1      -1      -1   
 ----------------------------------


 UBDSV1 SAVING           STO-SS ON UNIT   1032 AT TIME STEP      1, STRESS PERIOD      1
 UBDSV1 SAVING           STO-SY ON UNIT   1032 AT TIME STEP      1, STRESS PERIOD      1
 UBDSV1 SAVING     FLOW-JA-FACE ON UNIT   1032 AT TIME STEP      1, STRESS PERIOD      1
 UBDSV06 SAVING       DATA-SPDIS IN MODEL FREYBERG_2       PACKAGE NPF             CONNECTED TO MODEL FREYBERG_2       PACKAGE NPF              ON UNIT   1032 AT TIME STEP      1, STRESS PERIOD      1
 UBDSV06 SAVING              WEL IN MODEL FREYBERG_2       PACKAGE FREYBERG_2      CONNECTED TO MODEL FREYBERG_2       PACKAGE WEL-1            ON UNIT   1032 AT TIME STEP      1, STRESS PERIOD      1
 UBDSV06 SAVING              RIV IN MODEL FREYBERG_2       PACKAGE FREYBERG_2      CONNECTED TO MODEL FREYBERG_2       PACKAGE RIV-1            ON UNIT   1032 AT TIME STEP      1, STRESS PERIOD      1
 UBDSV06 SAVING             RCHA IN MODEL FREYBERG_2       PACKAGE FREYBERG_2      CONNECTED TO MODEL FREYBERG_2       PACKAGE RCH-1            ON UNIT   1032 AT TIME STEP      1, STRESS PERIOD      1

    CALCULATED INTERCELL FLOW FOR PERIOD 1 STEP 1
(1,1,1): (1,1,2) -2.881988E-04 (1,2,1) 4.379794E-05
(1,1,2): (1,1,1) 2.881988E-04 (1,1,3) -4.107234E-04 (1,2,2) 2.252462E-05
(1,1,3): (1,1,2) 4.107234E-04 (1,1,4) -5.263409E-04 (1,2,3) 1.561746E-05
(1,1,4): (1,1,3) 5.263409E-04 (1,1,5) -6.754432E-04 (1,2,4) 4.910231E-05
(1,1,5): (1,1,4) 6.754432E-04 (1,1,6) -8.115149E-04 (1,2,5) 3.607167E-05
(1,1,6): (1,1,5) 8.115149E-04 (1,1,7) -9.188949E-04 (1,2,6) 7.380066E-06
(1,1,7): (1,1,6) 9.188949E-04 (1,1,8) -1.005527E-03 (1,2,7) -1.336834E-05
(1,1,8): (1,1,7) 1.005527E-03 (1,1,9) -1.060810E-03 (1,2,8) -4.471621E-05
(1,1,9): (1,1,8) 1.060810E-03 (1,1,10) -1.047130E-03 (1,2,9) -1.136806E-04
(1,1,10): (1,1,9) 1.047130E-03 (1,1,11) -1.020958E-03 (1,2,10) -1.261720E-04
(1,1,11): (1,1,10) 1.020958E-03 (1,1,12) -9.966353E-04 (1,2,11) -1.243225E-04
(1,1,12): (1,1,11) 9.966353E-04 (1,1,13) -9.815401E-04 (1,2,12) -1.150951E-04
(1,1,13): (1,1,12) 9.815401E-04 (1,1,14) -8.863962E-04 (1,2,13) -1.951439E-04
(1,1,14): (1,1,13) 8.863962E-04 (1,1,15) -2.796508E-05 (1,2,14) -3.492041E-04
(1,1,15): (1,1,14) 2.796508E-05 (1,1,16) 5.048502E-05 (1,2,15) -1.784501E-04
(1,1,16): (1,1,15) -5.048502E-05 (1,1,17) 4.914899E-05 (1,2,16) -9.866397E-05
(1,1,17): (1,1,16) -4.914899E-05 (1,1,18) 4.275514E-05 (1,2,17) -9.360615E-05
(1,1,18): (1,1,17) -4.275514E-05 (1,1,19) 3.100009E-05 (1,2,18) -8.824495E-05
(1,1,19): (1,1,18) -3.100009E-05 (1,2,19) -6.899991E-05
(1,2,1): (1,1,1) -4.379794E-05 (1,2,2) -2.801443E-04
(1,2,2): (1,1,2) -2.252462E-05 (1,2,1) 2.801443E-04 (1,2,3) -4.035315E-04 (1,3,2) 4.591184E-05
(1,2,3): (1,1,3) -1.561746E-05 (1,2,2) 4.035315E-04 (1,2,4) -5.571902E-04 (1,3,3) 6.927618E-05
(1,2,4): (1,1,4) -4.910231E-05 (1,2,3) 5.571902E-04 (1,2,5) -6.776564E-04 (1,3,4) 6.956852E-05
(1,2,5): (1,1,5) -3.607167E-05 (1,2,4) 6.776564E-04 (1,2,6) -7.790336E-04 (1,3,5) 3.744886E-05
(1,2,6): (1,1,6) -7.380066E-06 (1,2,5) 7.790336E-04 (1,2,7) -8.811060E-04 (1,3,6) 9.452456E-06
(1,2,7): (1,1,7) 1.336834E-05 (1,2,6) 8.811060E-04 (1,2,8) -9.676956E-04 (1,3,7) -2.677877E-05
(1,2,8): (1,1,8) 4.471621E-05 (1,2,7) 9.676956E-04 (1,2,9) -1.034435E-03 (1,3,8) -7.797687E-05
(1,2,9): (1,1,9) 1.136806E-04 (1,2,8) 1.034435E-03 (1,2,10) -1.100582E-03 (1,3,9) -1.475333E-04
(1,2,10): (1,1,10) 1.261720E-04 (1,2,9) 1.100582E-03 (1,2,11) -1.109890E-03 (1,3,10) -2.168639E-04
(1,2,11): (1,1,11) 1.243225E-04 (1,2,10) 1.109890E-03 (1,2,12) -1.089119E-03 (1,3,11) -2.450941E-04
(1,2,12): (1,1,12) 1.150951E-04 (1,2,11) 1.089119E-03 (1,2,13) -1.063027E-03 (1,3,12) -2.411868E-04
(1,2,13): (1,1,13) 1.951439E-04 (1,2,12) 1.063027E-03 (1,2,14) -1.081783E-03 (1,3,13) -2.763881E-04
(1,2,14): (1,1,14) 3.492041E-04 (1,2,13) 1.081783E-03 (1,2,15) 1.338733E-04 (1,3,14) -3.245922E-04
(1,2,15): (1,1,15) 1.784501E-04 (1,2,14) -1.338733E-04 (1,2,16) 1.046233E-04 (1,3,15) -2.492001E-04
(1,2,16): (1,1,16) 9.866397E-05 (1,2,15) -1.046233E-04 (1,2,17) 6.525442E-05 (1,3,16) -1.592951E-04
(1,2,17): (1,1,17) 9.360615E-05 (1,2,16) -6.525442E-05 (1,2,18) 5.171505E-05 (1,3,17) -1.800668E-04
(1,2,18): (1,1,18) 8.824495E-05 (1,2,17) -5.171505E-05 (1,2,19) 3.390894E-05 (1,3,18) -1.704388E-04
(1,2,19): (1,1,19) 6.899991E-05 (1,2,18) -3.390894E-05 (1,3,19) -1.350910E-04
(1,3,2): (1,2,2) -4.591184E-05 (1,3,3) -4.222830E-04 (1,4,2) 8.152871E-05
(1,3,3): (1,2,3) -6.927618E-05 (1,3,2) 4.222830E-04 (1,3,4) -5.756986E-04 (1,4,3) 1.226917E-04
(1,3,4): (1,2,4) -6.956852E-05 (1,3,3) 5.756986E-04 (1,3,5) -7.092746E-04 (1,4,4) 1.031446E-04
(1,3,5): (1,2,5) -3.744886E-05 (1,3,4) 7.092746E-04 (1,3,6) -8.410373E-04 (1,4,5) 6.921155E-05
(1,3,6): (1,2,6) -9.452456E-06 (1,3,5) 8.410373E-04 (1,3,7) -9.447534E-04 (1,4,6) 1.316859E-05
(1,3,7): (1,2,7) 2.677877E-05 (1,3,6) 9.447534E-04 (1,3,8) -1.009017E-03 (1,4,7) -6.251512E-05
(1,3,8): (1,2,8) 7.797687E-05 (1,3,7) 1.009017E-03 (1,3,9) -1.008291E-03 (1,4,8) -1.787026E-04
(1,3,9): (1,2,9) 1.475333E-04 (1,3,8) 1.008291E-03 (1,3,10) -9.683516E-04 (1,4,9) -2.874731E-04
(1,3,10): (1,2,10) 2.168639E-04 (1,3,9) 9.683516E-04 (1,3,11) -9.494204E-04 (1,4,10) -3.357951E-04
(1,3,11): (1,2,11) 2.450941E-04 (1,3,10) 9.494204E-04 (1,3,12) -9.662279E-04 (1,4,11) -3.282866E-04
(1,3,12): (1,2,12) 2.411868E-04 (1,3,11) 9.662279E-04 (1,3,13) -1.049350E-03 (1,4,12) -2.580645E-04
(1,3,13): (1,2,13) 2.763881E-04 (1,3,12) 1.049350E-03 (1,3,14) -1.093570E-03 (1,4,13) -3.321682E-04
(1,3,14): (1,2,14) 3.245922E-04 (1,3,13) 1.093570E-03 (1,3,15) 1.896525E-04 (1,4,14) -3.280713E-04
(1,3,15): (1,2,15) 2.492001E-04 (1,3,14) -1.896525E-04 (1,3,16) 1.411609E-04 (1,4,15) -3.007085E-04
(1,3,16): (1,2,16) 1.592951E-04 (1,3,15) -1.411609E-04 (1,3,17) 9.344788E-05 (1,4,16) -2.115821E-04
(1,3,17): (1,2,17) 1.800668E-04 (1,3,16) -9.344788E-05 (1,3,18) 7.331769E-05 (1,4,17) -2.599366E-04
(1,3,18): (1,2,18) 1.704388E-04 (1,3,17) -7.331769E-05 (1,3,19) 3.529475E-05 (1,4,18) -2.324159E-04
(1,3,19): (1,2,19) 1.350910E-04 (1,3,18) -3.529475E-05 (1,4,19) -1.997962E-04
(1,4,2): (1,3,2) -8.152871E-05 (1,4,3) -3.997943E-04
(1,4,3): (1,3,3) -1.226917E-04 (1,4,2) 3.997943E-04 (1,4,4) -5.728109E-04 (1,5,3) 1.957083E-04
(1,4,4): (1,3,4) -1.031446E-04 (1,4,3) 5.728109E-04 (1,4,5) -6.935840E-04 (1,5,4) 1.239176E-04
(1,4,5): (1,3,5) -6.921155E-05 (1,4,4) 6.935840E-04 (1,4,6) -8.045433E-04 (1,5,5) 8.017091E-05
(1,4,6): (1,3,6) -1.316859E-05 (1,4,5) 8.045433E-04 (1,4,7) -9.836820E-04 (1,5,6) 9.230726E-05
(1,4,7): (1,3,7) 6.251512E-05 (1,4,6) 9.836820E-04 (1,4,8) -1.052417E-03 (1,5,7) -9.377993E-05
(1,4,8): (1,3,8) 1.787026E-04 (1,4,7) 1.052417E-03 (1,4,9) -1.051354E-03 (1,5,8) -2.797658E-04
(1,4,9): (1,3,9) 2.874731E-04 (1,4,8) 1.051354E-03 (1,4,10) -1.102783E-03 (1,5,9) -3.360437E-04
(1,4,10): (1,3,10) 3.357951E-04 (1,4,9) 1.102783E-03 (1,4,11) -1.162447E-03 (1,5,10) -3.761317E-04
(1,4,11): (1,3,11) 3.282866E-04 (1,4,10) 1.162447E-03 (1,4,12) -1.231256E-03 (1,5,11) -3.594777E-04
(1,4,12): (1,3,12) 2.580645E-04 (1,4,11) 1.231256E-03 (1,4,13) -1.233547E-03 (1,5,12) -3.557727E-04
(1,4,13): (1,3,13) 3.321682E-04 (1,4,12) 1.233547E-03 (1,4,14) -1.256901E-03 (1,5,13) -4.088145E-04
(1,4,14): (1,3,14) 3.280713E-04 (1,4,13) 1.256901E-03 (1,4,15) 2.332090E-04 (1,5,14) -3.815643E-04
(1,4,15): (1,3,15) 3.007085E-04 (1,4,14) -2.332090E-04 (1,4,16) 1.508025E-04 (1,5,15) -3.183019E-04
(1,4,16): (1,3,16) 2.115821E-04 (1,4,15) -1.508025E-04 (1,4,17) 1.210433E-04 (1,5,16) -2.818229E-04
(1,4,17): (1,3,17) 2.599366E-04 (1,4,16) -1.210433E-04 (1,4,18) 8.230482E-05 (1,5,17) -3.211981E-04
(1,4,18): (1,3,18) 2.324159E-04 (1,4,17) -8.230482E-05 (1,4,19) 4.423155E-05 (1,5,18) -2.943426E-04
(1,4,19): (1,3,19) 1.997962E-04 (1,4,18) -4.423155E-05 (1,5,19) -2.555647E-04
(1,5,3): (1,4,3) -1.957083E-04 (1,5,4) -6.164334E-04 (1,6,3) 2.555350E-04
(1,5,4): (1,4,4) -1.239176E-04 (1,5,3) 6.164334E-04 (1,5,5) -7.655233E-04 (1,6,4) 1.730076E-04
(1,5,5): (1,4,5) -8.017091E-05 (1,5,4) 7.655233E-04 (1,5,6) -8.857032E-04 (1,6,5) 1.003508E-04
(1,5,6): (1,4,6) -9.230726E-05 (1,5,5) 8.857032E-04 (1,5,7) -8.538320E-04 (1,6,6) -3.956396E-05
(1,5,7): (1,4,7) 9.377993E-05 (1,5,6) 8.538320E-04 (1,5,8) -9.192883E-04 (1,6,7) -1.283235E-04
(1,5,8): (1,4,8) 2.797658E-04 (1,5,7) 9.192883E-04 (1,5,9) -1.125317E-03 (1,6,8) -1.737374E-04
(1,5,9): (1,4,9) 3.360437E-04 (1,5,8) 1.125317E-03 (1,5,10) -1.209449E-03 (1,6,9) -3.519118E-04
(1,5,10): (1,4,10) 3.761317E-04 (1,5,9) 1.209449E-03 (1,5,11) -1.191714E-03 (1,6,10) -4.938666E-04
(1,5,11): (1,4,11) 3.594777E-04 (1,5,10) 1.191714E-03 (1,5,12) -1.191291E-03 (1,6,11) -4.599008E-04
(1,5,12): (1,4,12) 3.557727E-04 (1,5,11) 1.191291E-03 (1,5,13) -1.244932E-03 (1,6,12) -4.021318E-04
(1,5,13): (1,4,13) 4.088145E-04 (1,5,12) 1.244932E-03 (1,5,14) -1.367927E-03 (1,6,13) -3.858193E-04
(1,5,14): (1,4,14) 3.815643E-04 (1,5,13) 1.367927E-03 (1,5,15) 2.163514E-04 (1,6,14) -3.686314E-04
(1,5,15): (1,4,15) 3.183019E-04 (1,5,14) -2.163514E-04 (1,5,16) 1.649950E-04 (1,6,15) -3.669455E-04
(1,5,16): (1,4,16) 2.818229E-04 (1,5,15) -1.649950E-04 (1,5,17) 1.632831E-04 (1,6,16) -3.801110E-04
(1,5,17): (1,4,17) 3.211981E-04 (1,5,16) -1.632831E-04 (1,5,18) 1.185581E-04 (1,6,17) -3.764731E-04
(1,5,18): (1,4,18) 2.943426E-04 (1,5,17) -1.185581E-04 (1,5,19) 6.600399E-05 (1,6,18) -3.417886E-04
(1,5,19): (1,4,19) 2.555647E-04 (1,5,18) -6.600399E-05 (1,6,19) -2.895607E-04
(1,6,3): (1,5,3) -2.555350E-04 (1,6,4) -5.746766E-04
(1,6,4): (1,5,4) -1.730076E-04 (1,6,3) 5.746766E-04 (1,6,5) -6.466202E-04 (1,7,4) 1.449512E-04
(1,6,5): (1,5,5) -1.003508E-04 (1,6,4) 6.466202E-04 (1,6,6) -7.090969E-04 (1,7,5) 6.282748E-05
(1,6,6): (1,5,6) 3.956396E-05 (1,6,5) 7.090969E-04 (1,6,7) -8.266273E-04 (1,7,6) -2.203353E-05
(1,6,7): (1,5,7) 1.283235E-04 (1,6,6) 8.266273E-04 (1,6,8) -8.533971E-04 (1,7,7) -2.015538E-04
(1,6,8): (1,5,8) 1.737374E-04 (1,6,7) 8.533971E-04 (1,6,9) -8.432486E-04 (1,7,8) -2.838859E-04
(1,6,9): (1,5,9) 3.519118E-04 (1,6,8) 8.432486E-04 (1,6,10) -9.034151E-04 (1,7,9) -3.917453E-04
(1,6,10): (1,5,10) 4.938666E-04 (1,6,9) 9.034151E-04 (1,6,11) -1.052468E-03 (1,7,10) -4.448135E-04
(1,6,11): (1,5,11) 4.599008E-04 (1,6,10) 1.052468E-03 (1,6,12) -1.126261E-03 (1,7,11) -4.861084E-04
(1,6,12): (1,5,12) 4.021318E-04 (1,6,11) 1.126261E-03 (1,6,13) -1.195731E-03 (1,7,12) -4.326614E-04
(1,6,13): (1,5,13) 3.858193E-04 (1,6,12) 1.195731E-03 (1,6,14) -1.298760E-03 (1,7,13) -3.827906E-04
(1,6,14): (1,5,14) 3.686314E-04 (1,6,13) 1.298760E-03 (1,6,15) 1.426602E-04 (1,7,14) -3.295006E-04
(1,6,15): (1,5,15) 3.669455E-04 (1,6,14) -1.426602E-04 (1,6,16) 2.058807E-04 (1,7,15) -5.301661E-04
(1,6,16): (1,5,16) 3.801110E-04 (1,6,15) -2.058807E-04 (1,6,17) 2.193926E-04 (1,7,16) -4.936229E-04
(1,6,17): (1,5,17) 3.764731E-04 (1,6,16) -2.193926E-04 (1,6,18) 1.730853E-04 (1,7,17) -4.301658E-04
(1,6,18): (1,5,18) 3.417886E-04 (1,6,17) -1.730853E-04 (1,6,19) 6.834260E-05 (1,7,18) -3.370459E-04
(1,6,19): (1,5,19) 2.895607E-04 (1,6,18) -6.834260E-05 (1,7,19) -3.212181E-04
(1,7,4): (1,6,4) -1.449512E-04 (1,7,5) -7.861308E-04 (1,8,4) 1.555955E-04
(1,7,5): (1,6,5) -6.282748E-05 (1,7,4) 7.861308E-04 (1,7,6) -8.646945E-04 (1,8,5) 4.139127E-05
(1,7,6): (1,6,6) 2.203353E-05 (1,7,5) 8.646945E-04 (1,7,7) -9.577914E-04 (1,8,6) -2.893668E-05
(1,7,7): (1,6,7) 2.015538E-04 (1,7,6) 9.577914E-04 (1,7,8) -9.302164E-04 (1,8,7) -3.291289E-04
(1,7,8): (1,6,8) 2.838859E-04 (1,7,7) 9.302164E-04 (1,7,9) -9.008174E-04 (1,8,8) -4.132849E-04
(1,7,9): (1,6,9) 3.917453E-04 (1,7,8) 9.008174E-04 (1,7,10) -8.547079E-04 (1,8,9) -5.378547E-04
(1,7,10): (1,6,10) 4.448135E-04 (1,7,9) 8.547079E-04 (1,7,11) -8.931649E-04 (1,8,10) -5.063565E-04
(1,7,11): (1,6,11) 4.861084E-04 (1,7,10) 8.931649E-04 (1,7,12) -9.318675E-04 (1,8,11) -5.474058E-04
(1,7,12): (1,6,12) 4.326614E-04 (1,7,11) 9.318675E-04 (1,7,13) -9.524112E-04 (1,8,12) -5.121177E-04
(1,7,13): (1,6,13) 3.827906E-04 (1,7,12) 9.524112E-04 (1,7,14) -1.008211E-03 (1,8,13) -4.269911E-04
(1,7,14): (1,6,14) 3.295006E-04 (1,7,13) 1.008211E-03 (1,7,15) -4.303645E-05 (1,8,14) -3.189564E-04
(1,7,15): (1,6,15) 5.301661E-04 (1,7,14) 4.303645E-05 (1,7,16) 2.558283E-04 (1,8,15) -9.290308E-04
(1,7,16): (1,6,16) 4.936229E-04 (1,7,15) -2.558283E-04 (1,7,17) 2.807394E-04 (1,8,16) -6.185340E-04
(1,7,17): (1,6,17) 4.301658E-04 (1,7,16) -2.807394E-04 (1,7,18) 1.789541E-04 (1,8,17) -4.283805E-04
(1,7,18): (1,6,18) 3.370459E-04 (1,7,17) -1.789541E-04 (1,7,19) 9.563688E-05 (1,8,18) -3.537286E-04
(1,7,19): (1,6,19) 3.212181E-04 (1,7,18) -9.563688E-05 (1,8,19) -3.255812E-04
(1,8,4): (1,7,4) -1.555955E-04 (1,8,5) -1.013167E-03
(1,8,5): (1,7,5) -4.139127E-05 (1,8,4) 1.013167E-03 (1,8,6) -1.071776E-03
(1,8,6): (1,7,6) 2.893668E-05 (1,8,5) 1.071776E-03 (1,8,7) -1.200712E-03
(1,8,7): (1,7,7) 3.291289E-04 (1,8,6) 1.200712E-03 (1,8,8) -7.785349E-04 (1,9,7) -8.513063E-04
(1,8,8): (1,7,8) 4.132849E-04 (1,8,7) 7.785349E-04 (1,8,9) -6.755237E-04 (1,9,8) -6.162961E-04
(1,8,9): (1,7,9) 5.378547E-04 (1,8,8) 6.755237E-04 (1,8,10) -7.187619E-04 (1,9,9) -5.946165E-04
(1,8,10): (1,7,10) 5.063565E-04 (1,8,9) 7.187619E-04 (1,8,11) -8.287674E-04 (1,9,10) -4.963510E-04
(1,8,11): (1,7,11) 5.474058E-04 (1,8,10) 8.287674E-04 (1,8,12) -8.759733E-04 (1,9,11) -6.001999E-04
(1,8,12): (1,7,12) 5.121177E-04 (1,8,11) 8.759733E-04 (1,8,13) -9.245991E-04 (1,9,12) -5.634919E-04
(1,8,13): (1,7,13) 4.269911E-04 (1,8,12) 9.245991E-04 (1,8,14) -1.049380E-03 (1,9,13) -4.022106E-04
(1,8,14): (1,7,14) 3.189564E-04 (1,8,13) 1.049380E-03 (1,8,15) -6.178914E-04 (1,9,14) -3.327103E-04
(1,8,15): (1,7,15) 9.290308E-04 (1,8,14) 6.178914E-04 (1,8,16) 4.854608E-04 (1,9,15) -2.132383E-03
(1,8,16): (1,7,16) 6.185340E-04 (1,8,15) -4.854608E-04 (1,8,17) 4.114647E-04 (1,9,16) -6.445379E-04
(1,8,17): (1,7,17) 4.283805E-04 (1,8,16) -4.114647E-04 (1,8,18) 2.701351E-04 (1,9,17) -3.870510E-04
(1,8,18): (1,7,18) 3.537286E-04 (1,8,17) -2.701351E-04 (1,8,19) 1.308852E-04 (1,9,18) -3.144787E-04
(1,8,19): (1,7,19) 3.255812E-04 (1,8,18) -1.308852E-04 (1,9,19) -2.946960E-04
(1,9,7): (1,8,7) 8.513063E-04 (1,9,8) -9.513063E-04
(1,9,8): (1,8,8) 6.162961E-04 (1,9,7) 9.513063E-04 (1,9,9) -7.175282E-04 (1,10,8) -9.500742E-04
(1,9,9): (1,8,9) 5.946165E-04 (1,9,8) 7.175282E-04 (1,9,10) -6.961789E-04 (1,10,9) -7.159657E-04
(1,9,10): (1,8,10) 4.963510E-04 (1,9,9) 6.961789E-04 (1,9,11) -7.439675E-04 (1,10,10) -5.485624E-04
(1,9,11): (1,8,11) 6.001999E-04 (1,9,10) 7.439675E-04 (1,9,12) -7.930491E-04 (1,10,11) -6.511184E-04
(1,9,12): (1,8,12) 5.634919E-04 (1,9,11) 7.930491E-04 (1,9,13) -7.192485E-04 (1,10,12) -7.372924E-04
(1,9,13): (1,8,13) 4.022106E-04 (1,9,12) 7.192485E-04 (1,9,14) -9.379064E-04 (1,10,13) -2.835527E-04
(1,9,14): (1,8,14) 3.327103E-04 (1,9,13) 9.379064E-04 (1,9,15) -2.273344E-03 (1,10,14) 9.619728E-04
(1,9,15): (1,8,15) 2.132383E-03 (1,9,14) 2.273344E-03 (1,9,16) 1.781205E-03 (1,10,15) 1.913069E-03
(1,9,16): (1,8,16) 6.445379E-04 (1,9,15) -1.781205E-03 (1,9,17) 7.690907E-04 (1,10,16) 2.675763E-04
(1,9,17): (1,8,17) 3.870510E-04 (1,9,16) -7.690907E-04 (1,9,18) 3.873837E-04 (1,10,17) -1.053440E-04
(1,9,18): (1,8,18) 3.144787E-04 (1,9,17) -3.873837E-04 (1,9,19) 1.565214E-04 (1,10,18) -1.836163E-04
(1,9,19): (1,8,19) 2.946960E-04 (1,9,18) -1.565214E-04 (1,10,19) -2.381747E-04
(1,10,8): (1,9,8) 9.500742E-04 (1,10,9) -4.104403E-04 (1,11,8) -6.396340E-04
(1,10,9): (1,9,9) 7.159657E-04 (1,10,8) 4.104403E-04 (1,10,10) -6.185849E-04 (1,11,9) -6.078211E-04
(1,10,10): (1,9,10) 5.485624E-04 (1,10,9) 6.185849E-04 (1,10,11) -7.942505E-04 (1,11,10) -4.728968E-04
(1,10,11): (1,9,11) 6.511184E-04 (1,10,10) 7.942505E-04 (1,10,12) -8.757130E-04 (1,11,11) -6.696559E-04
(1,10,12): (1,9,12) 7.372924E-04 (1,10,11) 8.757130E-04 (1,10,13) -2.272221E-04 (1,11,12) -1.485783E-03
(1,10,13): (1,9,13) 2.835527E-04 (1,10,12) 2.272221E-04 (1,10,14) 3.071081E-04 (1,11,13) -9.178829E-04
(1,10,14): (1,9,14) -9.619728E-04 (1,10,13) -3.071081E-04 (1,10,15) -1.478036E-03 (1,11,14) -1.546916E-03
(1,10,15): (1,9,15) -1.913069E-03 (1,10,14) 1.478036E-03 (1,10,16) 2.815263E-04 (1,11,15) 5.350623E-05
(1,10,16): (1,9,16) -2.675763E-04 (1,10,15) -2.815263E-04 (1,10,17) 4.141154E-04 (1,11,16) 3.498719E-05
(1,10,17): (1,9,17) 1.053440E-04 (1,10,16) -4.141154E-04 (1,10,18) 2.847432E-04 (1,11,17) -7.597181E-05
(1,10,18): (1,9,18) 1.836163E-04 (1,10,17) -2.847432E-04 (1,10,19) 1.537726E-04 (1,11,18) -1.526457E-04
(1,10,19): (1,9,19) 2.381747E-04 (1,10,18) -1.537726E-04 (1,11,19) -1.844020E-04
(1,11,8): (1,10,8) 6.396340E-04 (1,11,9) -2.837610E-04 (1,12,8) -4.558730E-04
(1,11,9): (1,10,9) 6.078211E-04 (1,11,8) 2.837610E-04 (1,11,10) -5.053140E-04 (1,12,9) -4.862681E-04
(1,11,10): (1,10,10) 4.728968E-04 (1,11,9) 5.053140E-04 (1,11,11) -7.401620E-04 (1,12,10) -3.380487E-04
(1,11,11): (1,10,11) 6.696559E-04 (1,11,10) 7.401620E-04 (1,11,12) -1.378243E-03 (1,12,11) -1.315746E-04
(1,11,12): (1,10,12) 1.485783E-03 (1,11,11) 1.378243E-03 (1,11,13) 5.351375E-04 (1,12,12) 6.008359E-04
(1,11,13): (1,10,13) 9.178829E-04 (1,11,12) -5.351375E-04 (1,11,14) -3.021832E-04 (1,12,13) -1.805623E-04
(1,11,14): (1,10,14) 1.546916E-03 (1,11,13) 3.021832E-04 (1,11,15) 1.568575E-04 (1,12,14) -3.425833E-04
(1,11,15): (1,10,15) -5.350623E-05 (1,11,14) -1.568575E-04 (1,11,16) 2.304095E-04 (1,12,15) -1.200458E-04
(1,11,16): (1,10,16) -3.498719E-05 (1,11,15) -2.304095E-04 (1,11,17) 2.629463E-04 (1,12,16) -9.754957E-05
(1,11,17): (1,10,17) 7.597181E-05 (1,11,16) -2.629463E-04 (1,11,18) 2.024292E-04 (1,12,17) -1.154547E-04
(1,11,18): (1,10,18) 1.526457E-04 (1,11,17) -2.024292E-04 (1,11,19) 1.088481E-04 (1,12,18) -1.590647E-04
(1,11,19): (1,10,19) 1.844020E-04 (1,11,18) -1.088481E-04 (1,12,19) -1.755539E-04
(1,12,8): (1,11,8) 4.558730E-04 (1,12,9) -2.251931E-04 (1,13,8) -3.306800E-04
(1,12,9): (1,11,9) 4.862681E-04 (1,12,8) 2.251931E-04 (1,12,10) -4.782455E-04 (1,13,9) -3.332157E-04
(1,12,10): (1,11,10) 3.380487E-04 (1,12,9) 4.782455E-04 (1,12,11) -6.538294E-04 (1,13,10) -2.624648E-04
(1,12,11): (1,11,11) 1.315746E-04 (1,12,10) 6.538294E-04 (1,12,12) -7.198119E-04 (1,13,11) -1.655921E-04
(1,12,12): (1,11,12) -6.008359E-04 (1,12,11) 7.198119E-04 (1,12,13) -2.901071E-04 (1,13,12) 7.113110E-05
(1,12,13): (1,11,13) 1.805623E-04 (1,12,12) 2.901071E-04 (1,12,14) -4.236437E-04 (1,13,13) -1.470256E-04
(1,12,14): (1,11,14) 3.425833E-04 (1,12,13) 4.236437E-04 (1,12,15) 2.815822E-04 (1,13,14) -3.034750E-04
(1,12,15): (1,11,15) 1.200458E-04 (1,12,14) -2.815822E-04 (1,12,16) 2.554120E-04 (1,13,15) -1.938756E-04
(1,12,16): (1,11,16) 9.754957E-05 (1,12,15) -2.554120E-04 (1,12,17) 2.419813E-04 (1,13,16) -1.841189E-04
(1,12,17): (1,11,17) 1.154547E-04 (1,12,16) -2.419813E-04 (1,12,18) 1.878312E-04 (1,13,17) -1.613046E-04
(1,12,18): (1,11,18) 1.590647E-04 (1,12,17) -1.878312E-04 (1,12,19) 9.724275E-05 (1,13,18) -1.684762E-04
(1,12,19): (1,11,19) 1.755539E-04 (1,12,18) -9.724275E-05 (1,13,19) -1.783111E-04
(1,13,8): (1,12,8) 3.306800E-04 (1,13,9) -2.047673E-04 (1,14,8) -2.259126E-04
(1,13,9): (1,12,9) 3.332157E-04 (1,13,8) 2.047673E-04 (1,13,10) -3.953773E-04 (1,14,9) -2.426057E-04
(1,13,10): (1,12,10) 2.624648E-04 (1,13,9) 3.953773E-04 (1,13,11) -5.823058E-04 (1,14,10) -1.755363E-04
(1,13,11): (1,12,11) 1.655921E-04 (1,13,10) 5.823058E-04 (1,13,12) -7.129981E-04 (1,14,11) -1.348998E-04
(1,13,12): (1,12,12) -7.113110E-05 (1,13,11) 7.129981E-04 (1,13,13) -6.250479E-04 (1,14,12) -1.168191E-04
(1,13,13): (1,12,13) 1.470256E-04 (1,13,12) 6.250479E-04 (1,13,14) -6.430663E-04 (1,14,13) -2.290072E-04
(1,13,14): (1,12,14) 3.034750E-04 (1,13,13) 6.430663E-04 (1,13,15) 4.187427E-04 (1,14,14) -3.338838E-04
(1,13,15): (1,12,15) 1.938756E-04 (1,13,14) -4.187427E-04 (1,13,16) 3.494559E-04 (1,14,15) -2.245888E-04
(1,13,16): (1,12,16) 1.841189E-04 (1,13,15) -3.494559E-04 (1,13,17) 2.512402E-04 (1,14,16) -1.859032E-04
(1,13,17): (1,12,17) 1.613046E-04 (1,13,16) -2.512402E-04 (1,13,18) 1.672496E-04 (1,14,17) -1.773141E-04
(1,13,18): (1,12,18) 1.684762E-04 (1,13,17) -1.672496E-04 (1,13,19) 8.225678E-05 (1,14,18) -1.834834E-04
(1,13,19): (1,12,19) 1.783111E-04 (1,13,18) -8.225678E-05 (1,14,19) -1.960544E-04
(1,14,8): (1,13,8) 2.259126E-04 (1,14,9) -1.832303E-04 (1,15,8) -1.426823E-04
(1,14,9): (1,13,9) 2.426057E-04 (1,14,8) 1.832303E-04 (1,14,10) -3.635397E-04 (1,15,9) -1.622962E-04
(1,14,10): (1,13,10) 1.755363E-04 (1,14,9) 3.635397E-04 (1,14,11) -4.825120E-04 (1,15,10) -1.565640E-04
(1,14,11): (1,13,11) 1.348998E-04 (1,14,10) 4.825120E-04 (1,14,12) -5.406245E-04 (1,15,11) -1.767873E-04
(1,14,12): (1,13,12) 1.168191E-04 (1,14,11) 5.406245E-04 (1,14,13) -6.178161E-04 (1,15,12) -1.396275E-04
(1,14,13): (1,13,13) 2.290072E-04 (1,14,12) 6.178161E-04 (1,14,14) -7.612945E-04 (1,15,13) -1.855288E-04
(1,14,14): (1,13,14) 3.338838E-04 (1,14,13) 7.612945E-04 (1,14,15) 4.816534E-04 (1,15,14) -2.980044E-04
(1,14,15): (1,13,15) 2.245888E-04 (1,14,14) -4.816534E-04 (1,14,16) 3.813574E-04 (1,15,15) -2.242928E-04
(1,14,16): (1,13,16) 1.859032E-04 (1,14,15) -3.813574E-04 (1,14,17) 2.662885E-04 (1,15,16) -1.708343E-04
(1,14,17): (1,13,17) 1.773141E-04 (1,14,16) -2.662885E-04 (1,14,18) 1.671358E-04 (1,15,17) -1.781613E-04
(1,14,18): (1,13,18) 1.834834E-04 (1,14,17) -1.671358E-04 (1,14,19) 8.136761E-05 (1,15,18) -1.977152E-04
(1,14,19): (1,13,19) 1.960544E-04 (1,14,18) -8.136761E-05 (1,15,19) -2.146868E-04
(1,15,8): (1,14,8) 1.426823E-04 (1,15,9) -1.550759E-04 (1,16,8) -8.760640E-05
(1,15,9): (1,14,9) 1.622962E-04 (1,15,8) 1.550759E-04 (1,15,10) -3.080176E-04 (1,16,9) -1.093546E-04
(1,15,10): (1,14,10) 1.565640E-04 (1,15,9) 3.080176E-04 (1,15,11) -4.540388E-04 (1,16,10) -1.105429E-04
(1,15,11): (1,14,11) 1.767873E-04 (1,15,10) 4.540388E-04 (1,15,12) -5.500842E-04 (1,16,11) -1.807419E-04
(1,15,12): (1,14,12) 1.396275E-04 (1,15,11) 5.500842E-04 (1,15,13) -5.881031E-04 (1,16,12) -2.016085E-04
(1,15,13): (1,14,13) 1.855288E-04 (1,15,12) 5.881031E-04 (1,15,14) -6.575803E-04 (1,16,13) -2.160517E-04
(1,15,14): (1,14,14) 2.980044E-04 (1,15,13) 6.575803E-04 (1,15,15) 4.438018E-04 (1,16,14) -2.414807E-04
(1,15,15): (1,14,15) 2.242928E-04 (1,15,14) -4.438018E-04 (1,15,16) 3.334449E-04 (1,16,15) -2.139358E-04
(1,15,16): (1,14,16) 1.708343E-04 (1,15,15) -3.334449E-04 (1,15,17) 2.325902E-04 (1,16,16) -1.699796E-04
(1,15,17): (1,14,17) 1.781613E-04 (1,15,16) -2.325902E-04 (1,15,18) 1.667866E-04 (1,16,17) -2.123578E-04
(1,15,18): (1,14,18) 1.977152E-04 (1,15,17) -1.667866E-04 (1,15,19) 8.086369E-05 (1,16,18) -2.117922E-04
(1,15,19): (1,14,19) 2.146868E-04 (1,15,18) -8.086369E-05 (1,16,19) -2.338231E-04
(1,16,8): (1,15,8) 8.760640E-05 (1,16,9) -1.454583E-04
(1,16,9): (1,15,9) 1.093546E-04 (1,16,8) 1.454583E-04 (1,16,10) -2.905765E-04 (1,17,9) -6.423643E-05
(1,16,10): (1,15,10) 1.105429E-04 (1,16,9) 2.905765E-04 (1,16,11) -4.121663E-04 (1,17,10) -8.895302E-05
(1,16,11): (1,15,11) 1.807419E-04 (1,16,10) 4.121663E-04 (1,16,12) -5.273938E-04 (1,17,11) -1.655143E-04
(1,16,12): (1,15,12) 2.016085E-04 (1,16,11) 5.273938E-04 (1,16,13) -6.106398E-04 (1,17,12) -2.183626E-04
(1,16,13): (1,15,13) 2.160517E-04 (1,16,12) 6.106398E-04 (1,16,14) -6.769700E-04 (1,17,13) -2.497216E-04
(1,16,14): (1,15,14) 2.414807E-04 (1,16,13) 6.769700E-04 (1,16,15) 4.572763E-04 (1,17,14) -2.439521E-04
(1,16,15): (1,15,15) 2.139358E-04 (1,16,14) -4.572763E-04 (1,16,16) 3.596451E-04 (1,17,15) -2.163046E-04
(1,16,16): (1,15,16) 1.699796E-04 (1,16,15) -3.596451E-04 (1,16,17) 2.739142E-04 (1,17,16) -1.842486E-04
(1,16,17): (1,15,17) 2.123578E-04 (1,16,16) -2.739142E-04 (1,16,18) 1.818369E-04 (1,17,17) -2.202805E-04
(1,16,18): (1,15,18) 2.117922E-04 (1,16,17) -1.818369E-04 (1,16,19) 8.247785E-05 (1,17,18) -2.124332E-04
(1,16,19): (1,15,19) 2.338231E-04 (1,16,18) -8.247785E-05 (1,17,19) -2.513452E-04
(1,17,9): (1,16,9) 6.423643E-05 (1,17,10) -3.177558E-04 (1,18,9) -8.175025E-06
(1,17,10): (1,16,10) 8.895302E-05 (1,17,9) 3.177558E-04 (1,17,11) -4.796901E-04 (1,18,10) -2.701870E-05
(1,17,11): (1,16,11) 1.655143E-04 (1,17,10) 4.796901E-04 (1,17,12) -6.209781E-04 (1,18,11) -1.242263E-04
(1,17,12): (1,16,12) 2.183626E-04 (1,17,11) 6.209781E-04 (1,17,13) -6.594321E-04 (1,18,12) -2.799086E-04
(1,17,13): (1,16,13) 2.497216E-04 (1,17,12) 6.594321E-04 (1,17,14) -6.811420E-04 (1,18,13) -3.280116E-04
(1,17,14): (1,16,14) 2.439521E-04 (1,17,13) 6.811420E-04 (1,17,15) 4.438639E-04 (1,18,14) -2.429667E-04
(1,17,15): (1,16,15) 2.163046E-04 (1,17,14) -4.438639E-04 (1,17,16) 3.500872E-04 (1,18,15) -2.225279E-04
(1,17,16): (1,16,16) 1.842486E-04 (1,17,15) -3.500872E-04 (1,17,17) 2.707019E-04 (1,18,16) -2.048633E-04
(1,17,17): (1,16,17) 2.202805E-04 (1,17,16) -2.707019E-04 (1,17,18) 1.783213E-04 (1,18,17) -2.278999E-04
(1,17,18): (1,16,18) 2.124332E-04 (1,17,17) -1.783213E-04 (1,17,19) 8.768178E-05 (1,18,18) -2.217936E-04
(1,17,19): (1,16,19) 2.513452E-04 (1,17,18) -8.768178E-05 (1,18,19) -2.636634E-04
(1,18,9): (1,17,9) 8.175025E-06 (1,18,10) -3.579892E-04
(1,18,10): (1,17,10) 2.701870E-05 (1,18,9) 3.579892E-04 (1,18,11) -5.150813E-04 (1,19,10) 3.007345E-05
(1,18,11): (1,17,11) 1.242263E-04 (1,18,10) 5.150813E-04 (1,18,12) -6.656421E-04 (1,19,11) -7.366547E-05
(1,18,12): (1,17,12) 2.799086E-04 (1,18,11) 6.656421E-04 (1,18,13) -7.195636E-04 (1,19,12) -3.259872E-04
(1,18,13): (1,17,13) 3.280116E-04 (1,18,12) 7.195636E-04 (1,18,14) -6.225990E-04 (1,19,13) -5.249762E-04
(1,18,14): (1,17,14) 2.429667E-04 (1,18,13) 6.225990E-04 (1,18,15) 5.202616E-04 (1,19,14) -2.461219E-04
(1,18,15): (1,17,15) 2.225279E-04 (1,18,14) -5.202616E-04 (1,18,16) 4.292455E-04 (1,19,15) -2.315118E-04
(1,18,16): (1,17,16) 2.048633E-04 (1,18,15) -4.292455E-04 (1,18,17) 3.187262E-04 (1,19,16) -1.943441E-04
(1,18,17): (1,17,17) 2.278999E-04 (1,18,16) -3.187262E-04 (1,18,18) 2.015180E-04 (1,19,17) -2.106917E-04
(1,18,18): (1,17,18) 2.217936E-04 (1,18,17) -2.015180E-04 (1,18,19) 1.102012E-04 (1,19,18) -2.304768E-04
(1,18,19): (1,17,19) 2.636634E-04 (1,18,18) -1.102012E-04 (1,19,19) -2.534623E-04
(1,19,10): (1,18,10) -3.007345E-05 (1,19,11) -5.377908E-04 (1,20,10) 8.416322E-05
(1,19,11): (1,18,11) 7.366547E-05 (1,19,10) 5.377908E-04 (1,19,12) -6.757410E-04 (1,20,11) -3.571532E-05
(1,19,12): (1,18,12) 3.259872E-04 (1,19,11) 6.757410E-04 (1,19,13) -7.966962E-04 (1,20,12) -3.050320E-04
(1,19,13): (1,18,13) 5.249762E-04 (1,19,12) 7.966962E-04 (1,19,14) -3.281638E-04 (1,20,13) -1.093509E-03
(1,19,14): (1,18,14) 2.461219E-04 (1,19,13) 3.281638E-04 (1,19,15) 5.434810E-04 (1,20,14) -2.506856E-04
(1,19,15): (1,18,15) 2.315118E-04 (1,19,14) -5.434810E-04 (1,19,16) 4.312981E-04 (1,20,15) -2.193289E-04
(1,19,16): (1,18,16) 1.943441E-04 (1,19,15) -4.312981E-04 (1,19,17) 3.274386E-04 (1,20,16) -1.904845E-04
(1,19,17): (1,18,17) 2.106917E-04 (1,19,16) -3.274386E-04 (1,19,18) 2.315751E-04 (1,20,17) -2.148282E-04
(1,19,18): (1,18,18) 2.304768E-04 (1,19,17) -2.315751E-04 (1,19,19) 1.127484E-04 (1,20,18) -2.116501E-04
(1,19,19): (1,18,19) 2.534623E-04 (1,19,18) -1.127484E-04 (1,20,19) -2.407139E-04
(1,20,10): (1,19,10) -8.416322E-05 (1,20,11) -6.560662E-04
(1,20,11): (1,19,11) 3.571532E-05 (1,20,10) 6.560662E-04 (1,20,12) -9.256732E-04 (1,21,11) 1.338917E-04
(1,20,12): (1,19,12) 3.050320E-04 (1,20,11) 9.256732E-04 (1,20,13) -1.464091E-03 (1,21,12) 1.333861E-04
(1,20,13): (1,19,13) 1.093509E-03 (1,20,12) 1.464091E-03 (1,20,14) 5.167307E-04 (1,21,13) 7.256695E-04
(1,20,14): (1,19,14) 2.506856E-04 (1,20,13) -5.167307E-04 (1,20,15) 5.560417E-04 (1,21,14) -2.047236E-04
(1,20,15): (1,19,15) 2.193289E-04 (1,20,14) -5.560417E-04 (1,20,16) 4.444370E-04 (1,21,15) -2.077242E-04
(1,20,16): (1,19,16) 1.904845E-04 (1,20,15) -4.444370E-04 (1,20,17) 3.343829E-04 (1,21,16) -1.804304E-04
(1,20,17): (1,19,17) 2.148282E-04 (1,20,16) -3.343829E-04 (1,20,18) 2.221042E-04 (1,21,17) -2.025496E-04
(1,20,18): (1,19,18) 2.116501E-04 (1,20,17) -2.221042E-04 (1,20,19) 1.003698E-04 (1,21,18) -1.899157E-04
(1,20,19): (1,19,19) 2.407139E-04 (1,20,18) -1.003698E-04 (1,21,19) -2.403440E-04
(1,21,11): (1,20,11) -1.338917E-04 (1,21,12) -8.011889E-04 (1,22,11) 1.063522E-04
(1,21,12): (1,20,12) -1.333861E-04 (1,21,11) 8.011889E-04 (1,21,13) -8.439276E-04 (1,22,12) 7.612476E-05
(1,21,13): (1,20,13) -7.256695E-04 (1,21,12) 8.439276E-04 (1,21,14) -3.846222E-04 (1,22,13) 1.663640E-04
(1,21,14): (1,20,14) 2.047236E-04 (1,21,13) 3.846222E-04 (1,21,15) 5.481090E-04 (1,22,14) -2.200971E-04
(1,21,15): (1,20,15) 2.077242E-04 (1,21,14) -5.481090E-04 (1,21,16) 4.317218E-04 (1,22,15) -1.913370E-04
(1,21,16): (1,20,16) 1.804304E-04 (1,21,15) -4.317218E-04 (1,21,17) 3.160983E-04 (1,22,16) -1.648069E-04
(1,21,17): (1,20,17) 2.025496E-04 (1,21,16) -3.160983E-04 (1,21,18) 2.088093E-04 (1,22,17) -1.952606E-04
(1,21,18): (1,20,18) 1.899157E-04 (1,21,17) -2.088093E-04 (1,21,19) 1.101779E-04 (1,22,18) -1.912843E-04
(1,21,19): (1,20,19) 2.403440E-04 (1,21,18) -1.101779E-04 (1,22,19) -2.301662E-04
(1,22,11): (1,21,11) -1.063522E-04 (1,22,12) -8.117481E-04
(1,22,12): (1,21,12) -7.612476E-05 (1,22,11) 8.117481E-04 (1,22,13) -8.707013E-04 (1,23,12) 3.507797E-05
(1,22,13): (1,21,13) -1.663640E-04 (1,22,12) 8.707013E-04 (1,22,14) -7.540125E-04 (1,23,13) -5.032477E-05
(1,22,14): (1,21,14) 2.200971E-04 (1,22,13) 7.540125E-04 (1,22,15) 5.644148E-04 (1,23,14) -2.149909E-04
(1,22,15): (1,21,15) 1.913370E-04 (1,22,14) -5.644148E-04 (1,22,16) 4.706126E-04 (1,23,15) -1.975348E-04
(1,22,16): (1,21,16) 1.648069E-04 (1,22,15) -4.706126E-04 (1,22,17) 3.677650E-04 (1,23,16) -1.619593E-04
(1,22,17): (1,21,17) 1.952606E-04 (1,22,16) -3.677650E-04 (1,22,18) 2.443158E-04 (1,23,17) -1.718114E-04
(1,22,18): (1,21,18) 1.912843E-04 (1,22,17) -2.443158E-04 (1,22,19) 1.266497E-04 (1,23,18) -1.736182E-04
(1,22,19): (1,21,19) 2.301662E-04 (1,22,18) -1.266497E-04 (1,23,19) -2.035164E-04
(1,23,12): (1,22,12) -3.507797E-05 (1,23,13) -8.790878E-04 (1,24,12) -2.959467E-06
(1,23,13): (1,22,13) 5.032477E-05 (1,23,12) 8.790878E-04 (1,23,14) -9.303714E-04 (1,24,13) -9.904112E-05
(1,23,14): (1,22,14) 2.149909E-04 (1,23,13) 9.303714E-04 (1,23,15) 6.054677E-04 (1,24,14) -2.256264E-04
(1,23,15): (1,22,15) 1.975348E-04 (1,23,14) -6.054677E-04 (1,23,16) 4.487126E-04 (1,24,15) -1.407797E-04
(1,23,16): (1,22,16) 1.619593E-04 (1,23,15) -4.487126E-04 (1,23,17) 3.241633E-04 (1,24,16) -1.374100E-04
(1,23,17): (1,22,17) 1.718114E-04 (1,23,16) -3.241633E-04 (1,23,18) 2.238139E-04 (1,24,17) -1.714620E-04
(1,23,18): (1,22,18) 1.736182E-04 (1,23,17) -2.238139E-04 (1,23,19) 1.271456E-04 (1,24,18) -1.769499E-04
(1,23,19): (1,22,19) 2.035164E-04 (1,23,18) -1.271456E-04 (1,24,19) -1.763709E-04
(1,24,12): (1,23,12) 2.959467E-06 (1,24,13) -1.045209E-03
(1,24,13): (1,23,13) 9.904112E-05 (1,24,12) 1.045209E-03 (1,24,14) -1.086100E-03 (1,25,13) -1.581506E-04
(1,24,14): (1,23,14) 2.256264E-04 (1,24,13) 1.086100E-03 (1,24,15) 5.491441E-04 (1,25,14) -2.380236E-04
(1,24,15): (1,23,15) 1.407797E-04 (1,24,14) -5.491441E-04 (1,24,16) 4.477890E-04 (1,25,15) -1.394245E-04
(1,24,16): (1,23,16) 1.374100E-04 (1,24,15) -4.477890E-04 (1,24,17) 3.590419E-04 (1,25,16) -1.486629E-04
(1,24,17): (1,23,17) 1.714620E-04 (1,24,16) -3.590419E-04 (1,24,18) 2.325195E-04 (1,25,17) -1.449396E-04
(1,24,18): (1,23,18) 1.769499E-04 (1,24,17) -2.325195E-04 (1,24,19) 1.192132E-04 (1,25,18) -1.636435E-04
(1,24,19): (1,23,19) 1.763709E-04 (1,24,18) -1.192132E-04 (1,25,19) -1.571577E-04
(1,25,13): (1,24,13) 1.581506E-04 (1,25,14) -1.189015E-03 (1,26,13) -1.310427E-04
(1,25,14): (1,24,14) 2.380236E-04 (1,25,13) 1.189015E-03 (1,25,15) 5.865896E-04 (1,26,14) -2.318714E-04
(1,25,15): (1,24,15) 1.394245E-04 (1,25,14) -5.865896E-04 (1,25,16) 4.613251E-04 (1,26,15) -1.141600E-04
(1,25,16): (1,24,16) 1.486629E-04 (1,25,15) -4.613251E-04 (1,25,17) 3.541589E-04 (1,26,16) -1.414968E-04
(1,25,17): (1,24,17) 1.449396E-04 (1,25,16) -3.541589E-04 (1,25,18) 2.498640E-04 (1,26,17) -1.406447E-04
(1,25,18): (1,24,18) 1.636435E-04 (1,25,17) -2.498640E-04 (1,25,19) 1.255797E-04 (1,26,18) -1.393593E-04
(1,25,19): (1,24,19) 1.571577E-04 (1,25,18) -1.255797E-04 (1,26,19) -1.315780E-04
(1,26,13): (1,25,13) 1.310427E-04 (1,26,14) -1.353820E-03
(1,26,14): (1,25,14) 2.318714E-04 (1,26,13) 1.353820E-03 (1,26,15) 6.345946E-04 (1,27,14) -1.991394E-04
(1,26,15): (1,25,15) 1.141600E-04 (1,26,14) -6.345946E-04 (1,26,16) 5.228739E-04 (1,27,15) -1.024393E-04
(1,26,16): (1,25,16) 1.414968E-04 (1,26,15) -5.228739E-04 (1,26,17) 4.004194E-04 (1,27,16) -1.190423E-04
(1,26,17): (1,25,17) 1.406447E-04 (1,26,16) -4.004194E-04 (1,26,18) 2.556541E-04 (1,27,17) -9.587943E-05
(1,26,18): (1,25,18) 1.393593E-04 (1,26,17) -2.556541E-04 (1,26,19) 1.194667E-04 (1,27,18) -1.031718E-04
(1,26,19): (1,25,19) 1.315780E-04 (1,26,18) -1.194667E-04 (1,27,19) -1.121113E-04
(1,27,14): (1,26,14) 1.991394E-04 (1,27,15) 5.606420E-04 (1,28,14) -1.567000E-04
(1,27,15): (1,26,15) 1.024393E-04 (1,27,14) -5.606420E-04 (1,27,16) 4.652248E-04 (1,28,15) -1.070221E-04
(1,27,16): (1,26,16) 1.190423E-04 (1,27,15) -4.652248E-04 (1,27,17) 3.333327E-04 (1,28,16) -8.715017E-05
(1,27,17): (1,26,17) 9.587943E-05 (1,27,16) -3.333327E-04 (1,27,18) 2.198124E-04 (1,28,17) -8.235914E-05
(1,27,18): (1,26,18) 1.031718E-04 (1,27,17) -2.198124E-04 (1,27,19) 1.138058E-04 (1,28,18) -9.716525E-05
(1,27,19): (1,26,19) 1.121113E-04 (1,27,18) -1.138058E-04 (1,28,19) -9.830545E-05
(1,28,14): (1,27,14) 1.567000E-04 (1,28,15) 5.988731E-04
(1,28,15): (1,27,15) 1.070221E-04 (1,28,14) -5.988731E-04 (1,28,16) 4.705179E-04 (1,29,15) -7.866688E-05
(1,28,16): (1,27,16) 8.715017E-05 (1,28,15) -4.705179E-04 (1,28,17) 3.426367E-04 (1,29,16) -5.926901E-05
(1,28,17): (1,27,17) 8.235914E-05 (1,28,16) -3.426367E-04 (1,28,18) 2.253797E-04 (1,29,17) -6.510213E-05
(1,28,18): (1,27,18) 9.716525E-05 (1,28,17) -2.253797E-04 (1,28,19) 1.103429E-04 (1,29,18) -8.212847E-05
(1,28,19): (1,27,19) 9.830545E-05 (1,28,18) -1.103429E-04 (1,29,19) -8.796253E-05
(1,29,15): (1,28,15) 7.866688E-05 (1,29,16) 3.598446E-04 (1,30,15) -6.968888E-05
(1,29,16): (1,28,16) 5.926901E-05 (1,29,15) -3.598446E-04 (1,29,17) 2.775974E-04 (1,30,16) -7.702174E-05
(1,29,17): (1,28,17) 6.510213E-05 (1,29,16) -2.775974E-04 (1,29,18) 1.865359E-04 (1,30,17) -7.404063E-05
(1,29,18): (1,28,18) 8.212847E-05 (1,29,17) -1.865359E-04 (1,29,19) 9.685458E-05 (1,30,18) -9.244718E-05
(1,29,19): (1,28,19) 8.796253E-05 (1,29,18) -9.685458E-05 (1,30,19) -9.110795E-05
(1,30,15): (1,29,15) 6.968888E-05 (1,30,16) 3.673415E-04
(1,30,16): (1,29,16) 7.702174E-05 (1,30,15) -3.673415E-04 (1,30,17) 2.717245E-04 (1,31,16) -8.140475E-05
(1,30,17): (1,29,17) 7.404063E-05 (1,30,16) -2.717245E-04 (1,30,18) 1.582643E-04 (1,31,17) -6.058045E-05
(1,30,18): (1,29,18) 9.244718E-05 (1,30,17) -1.582643E-04 (1,30,19) 7.088984E-05 (1,31,18) -1.050727E-04
(1,30,19): (1,29,19) 9.110795E-05 (1,30,18) -7.088984E-05 (1,31,19) -1.202181E-04
(1,31,16): (1,30,16) 8.140475E-05 (1,31,17) 1.588876E-04 (1,32,16) -1.113816E-04
(1,31,17): (1,30,17) 6.058045E-05 (1,31,16) -1.588876E-04 (1,31,18) 8.621251E-05 (1,32,17) -8.790531E-05
(1,31,18): (1,30,18) 1.050727E-04 (1,31,17) -8.621251E-05 (1,31,19) 5.029026E-05 (1,32,18) -1.691504E-04
(1,31,19): (1,30,19) 1.202181E-04 (1,31,18) -5.029026E-05 (1,32,19) -1.699278E-04
(1,32,16): (1,31,16) 1.113816E-04 (1,32,17) 1.595467E-04
(1,32,17): (1,31,17) 8.790531E-05 (1,32,16) -1.595467E-04 (1,32,18) 1.105797E-04 (1,33,17) -1.389382E-04
(1,32,18): (1,31,18) 1.691504E-04 (1,32,17) -1.105797E-04 (1,32,19) 5.304713E-05 (1,33,18) -2.116179E-04
(1,32,19): (1,31,19) 1.699278E-04 (1,32,18) -5.304713E-05 (1,33,19) -2.168807E-04
(1,33,17): (1,32,17) 1.389382E-04 (1,33,18) 1.921808E-04 (1,34,17) -1.823648E-04
(1,33,18): (1,32,18) 2.116179E-04 (1,33,17) -1.921808E-04 (1,33,19) 8.473006E-05 (1,34,18) -2.041672E-04
(1,33,19): (1,32,19) 2.168807E-04 (1,33,18) -8.473006E-05 (1,34,19) -2.321507E-04
(1,34,17): (1,33,17) 1.823648E-04 (1,34,18) 2.451970E-04
(1,34,18): (1,33,18) 2.041672E-04 (1,34,17) -2.451970E-04 (1,34,19) 1.627445E-04 (1,35,18) -2.217147E-04
(1,34,19): (1,33,19) 2.321507E-04 (1,34,18) -1.627445E-04 (1,35,19) -1.694062E-04
(1,35,18): (1,34,18) 2.217147E-04 (1,35,19) 2.694062E-04 (1,36,18) -3.594868E-04
(1,35,19): (1,34,19) 1.694062E-04 (1,35,18) -2.694062E-04
(1,36,18): (1,35,18) 3.594868E-04

 WEL PACKAGE (WEL-1) FLOW RATES   PERIOD      1   STEP        1
 -----------------------------------------------
   NUMBER   CELLID                    RATE      
 -----------------------------------------------
     1      (1,9,15)             -8.20000000E-03
     2      (1,11,12)            -4.10000000E-03
     3      (1,20,13)            -3.90000000E-03
 -----------------------------------------------




 RIV PACKAGE (RIV-1) FLOW RATES   PERIOD      1   STEP        1
 -----------------------------------------------
   NUMBER   CELLID                    RATE      
 -----------------------------------------------
     1      (1,1,14)             -6.09227033E-04
     2      (1,2,14)             -1.34026812E-03
     3      (1,3,14)             -1.37974350E-03
     4      (1,4,14)             -1.53661716E-03
     5      (1,5,14)             -1.69721116E-03
     6      (1,6,14)             -1.58055059E-03
     7      (1,7,14)             -1.07571852E-03
     8      (1,8,14)             -5.17734258E-04
     9      (1,9,14)             -5.92459776E-05
     10     (1,10,14)             4.19403246E-03
     11     (1,11,14)            -1.76337297E-03
     12     (1,12,14)            -8.44334184E-04
     13     (1,13,14)            -1.13140017E-03
     14     (1,14,14)            -1.37882736E-03
     15     (1,15,14)            -1.25790580E-03
     16     (1,16,14)            -1.23177494E-03
     17     (1,17,14)            -1.22599128E-03
     18     (1,18,14)            -1.23970539E-03
     19     (1,19,14)            -9.67080998E-04
     20     (1,20,14)            -1.85273089E-04
     21     (1,21,14)            -1.01735764E-03
     22     (1,22,14)            -1.42353346E-03
     23     (1,23,14)            -1.62520365E-03
     24     (1,24,14)            -1.72284684E-03
     25     (1,25,14)            -1.88175718E-03
     26     (1,26,14)            -2.12114656E-03
     27     (1,27,14)            -1.69836026E-03
     28     (1,28,14)            -1.72779444E-03
 -----------------------------------------------




 RCHA PACKAGE (RCH-1) FLOW RATES   PERIOD      1   STEP        1
 -----------------------------------------------
   NUMBER   CELLID                    RATE      
 -----------------------------------------------
     1      (1,1,1)               1.00000000E-04
     2      (1,1,2)               1.00000000E-04
     3      (1,1,3)               1.00000000E-04
     4      (1,1,4)               1.00000000E-04
     5      (1,1,5)               1.00000000E-04
     6      (1,1,6)               1.00000000E-04
     7      (1,1,7)               1.00000000E-04
     8      (1,1,8)               1.00000000E-04
     9      (1,1,9)               1.00000000E-04
     10     (1,1,10)              1.00000000E-04
     11     (1,1,11)              1.00000000E-04
     12     (1,1,12)              1.00000000E-04
     13     (1,1,13)              1.00000000E-04
     14     (1,1,14)              1.00000000E-04
     15     (1,1,15)              1.00000000E-04
     16     (1,1,16)              1.00000000E-04
     17     (1,1,17)              1.00000000E-04
     18     (1,1,18)              1.00000000E-04
     19     (1,1,19)              1.00000000E-04
     20     (1,2,1)               1.00000000E-04
     21     (1,2,2)               1.00000000E-04
     22     (1,2,3)               1.00000000E-04
     23     (1,2,4)               1.00000000E-04
     24     (1,2,5)               1.00000000E-04
     25     (1,2,6)               1.00000000E-04
     26     (1,2,7)               1.00000000E-04
     27     (1,2,8)               1.00000000E-04
     28     (1,2,9)               1.00000000E-04
     29     (1,2,10)              1.00000000E-04
     30     (1,2,11)              1.00000000E-04
     31     (1,2,12)              1.00000000E-04
     32     (1,2,13)              1.00000000E-04
     33     (1,2,14)              1.00000000E-04
     34     (1,2,15)              1.00000000E-04
     35     (1,2,16)              1.00000000E-04
     36     (1,2,17)              1.00000000E-04
     37     (1,2,18)              1.00000000E-04
     38     (1,2,19)              1.00000000E-04
     40     (1,3,2)               1.00000000E-04
     41     (1,3,3)               1.00000000E-04
     42     (1,3,4)               1.00000000E-04
     43     (1,3,5)               1.00000000E-04
     44     (1,3,6)               1.00000000E-04
     45     (1,3,7)               1.00000000E-04
     46     (1,3,8)               1.00000000E-04
     47     (1,3,9)               1.00000000E-04
     48     (1,3,10)              1.00000000E-04
     49     (1,3,11)              1.00000000E-04
     50     (1,3,12)              1.00000000E-04
     51     (1,3,13)              1.00000000E-04
     52     (1,3,14)              1.00000000E-04
     53     (1,3,15)              1.00000000E-04
     54     (1,3,16)              1.00000000E-04
     55     (1,3,17)              1.00000000E-04
     56     (1,3,18)              1.00000000E-04
     57     (1,3,19)              1.00000000E-04
     59     (1,4,2)               1.00000000E-04
     60     (1,4,3)               1.00000000E-04
     61     (1,4,4)               1.00000000E-04
     62     (1,4,5)               1.00000000E-04
     63     (1,4,6)               1.00000000E-04
     64     (1,4,7)               1.00000000E-04
     65     (1,4,8)               1.00000000E-04
     66     (1,4,9)               1.00000000E-04
     67     (1,4,10)              1.00000000E-04
     68     (1,4,11)              1.00000000E-04
     69     (1,4,12)              1.00000000E-04
     70     (1,4,13)              1.00000000E-04
     71     (1,4,14)              1.00000000E-04
     72     (1,4,15)              1.00000000E-04
     73     (1,4,16)              1.00000000E-04
     74     (1,4,17)              1.00000000E-04
     75     (1,4,18)              1.00000000E-04
     76     (1,4,19)              1.00000000E-04
     79     (1,5,3)               1.00000000E-04
     80     (1,5,4)               1.00000000E-04
     81     (1,5,5)               1.00000000E-04
     82     (1,5,6)               1.00000000E-04
     83     (1,5,7)               1.00000000E-04
     84     (1,5,8)               1.00000000E-04
     85     (1,5,9)               1.00000000E-04
     86     (1,5,10)              1.00000000E-04
     87     (1,5,11)              1.00000000E-04
     88     (1,5,12)              1.00000000E-04
     89     (1,5,13)              1.00000000E-04
     90     (1,5,14)              1.00000000E-04
     91     (1,5,15)              1.00000000E-04
     92     (1,5,16)              1.00000000E-04
     93     (1,5,17)              1.00000000E-04
     94     (1,5,18)              1.00000000E-04
     95     (1,5,19)              1.00000000E-04
     98     (1,6,3)               1.00000000E-04
     99     (1,6,4)               1.00000000E-04
    100     (1,6,5)               1.00000000E-04
    101     (1,6,6)               1.00000000E-04
    102     (1,6,7)               1.00000000E-04
    103     (1,6,8)               1.00000000E-04
    104     (1,6,9)               1.00000000E-04
    105     (1,6,10)              1.00000000E-04
    106     (1,6,11)              1.00000000E-04
    107     (1,6,12)              1.00000000E-04
    108     (1,6,13)              1.00000000E-04
    109     (1,6,14)              1.00000000E-04
    110     (1,6,15)              1.00000000E-04
    111     (1,6,16)              1.00000000E-04
    112     (1,6,17)              1.00000000E-04
    113     (1,6,18)              1.00000000E-04
    114     (1,6,19)              1.00000000E-04
    118     (1,7,4)               1.00000000E-04
    119     (1,7,5)               1.00000000E-04
    120     (1,7,6)               1.00000000E-04
    121     (1,7,7)               1.00000000E-04
    122     (1,7,8)               1.00000000E-04
    123     (1,7,9)               1.00000000E-04
    124     (1,7,10)              1.00000000E-04
    125     (1,7,11)              1.00000000E-04
    126     (1,7,12)              1.00000000E-04
    127     (1,7,13)              1.00000000E-04
    128     (1,7,14)              1.00000000E-04
    129     (1,7,15)              1.00000000E-04
    130     (1,7,16)              1.00000000E-04
    131     (1,7,17)              1.00000000E-04
    132     (1,7,18)              1.00000000E-04
    133     (1,7,19)              1.00000000E-04
    137     (1,8,4)               1.00000000E-04
    138     (1,8,5)               1.00000000E-04
    139     (1,8,6)               1.00000000E-04
    140     (1,8,7)               1.00000000E-04
    141     (1,8,8)               1.00000000E-04
    142     (1,8,9)               1.00000000E-04
    143     (1,8,10)              1.00000000E-04
    144     (1,8,11)              1.00000000E-04
    145     (1,8,12)              1.00000000E-04
    146     (1,8,13)              1.00000000E-04
    147     (1,8,14)              1.00000000E-04
    148     (1,8,15)              1.00000000E-04
    149     (1,8,16)              1.00000000E-04
    150     (1,8,17)              1.00000000E-04
    151     (1,8,18)              1.00000000E-04
    152     (1,8,19)              1.00000000E-04
    159     (1,9,7)               1.00000000E-04
    160     (1,9,8)               1.00000000E-04
    161     (1,9,9)               1.00000000E-04
    162     (1,9,10)              1.00000000E-04
    163     (1,9,11)              1.00000000E-04
    164     (1,9,12)              1.00000000E-04
    165     (1,9,13)              1.00000000E-04
    166     (1,9,14)              1.00000000E-04
    167     (1,9,15)              1.00000000E-04
    168     (1,9,16)              1.00000000E-04
    169     (1,9,17)              1.00000000E-04
    170     (1,9,18)              1.00000000E-04
    171     (1,9,19)              1.00000000E-04
    179     (1,10,8)              1.00000000E-04
    180     (1,10,9)              1.00000000E-04
    181     (1,10,10)             1.00000000E-04
    182     (1,10,11)             1.00000000E-04
    183     (1,10,12)             1.00000000E-04
    184     (1,10,13)             1.00000000E-04
    185     (1,10,14)             1.00000000E-04
    186     (1,10,15)             1.00000000E-04
    187     (1,10,16)             1.00000000E-04
    188     (1,10,17)             1.00000000E-04
    189     (1,10,18)             1.00000000E-04
    190     (1,10,19)             1.00000000E-04
    198     (1,11,8)              1.00000000E-04
    199     (1,11,9)              1.00000000E-04
    200     (1,11,10)             1.00000000E-04
    201     (1,11,11)             1.00000000E-04
    202     (1,11,12)             1.00000000E-04
    203     (1,11,13)             1.00000000E-04
    204     (1,11,14)             1.00000000E-04
    205     (1,11,15)             1.00000000E-04
    206     (1,11,16)             1.00000000E-04
    207     (1,11,17)             1.00000000E-04
    208     (1,11,18)             1.00000000E-04
    209     (1,11,19)             1.00000000E-04
    217     (1,12,8)              1.00000000E-04
    218     (1,12,9)              1.00000000E-04
    219     (1,12,10)             1.00000000E-04
    220     (1,12,11)             1.00000000E-04
    221     (1,12,12)             1.00000000E-04
    222     (1,12,13)             1.00000000E-04
    223     (1,12,14)             1.00000000E-04
    224     (1,12,15)             1.00000000E-04
    225     (1,12,16)             1.00000000E-04
    226     (1,12,17)             1.00000000E-04
    227     (1,12,18)             1.00000000E-04
    228     (1,12,19)             1.00000000E-04
    236     (1,13,8)              1.00000000E-04
    237     (1,13,9)              1.00000000E-04
    238     (1,13,10)             1.00000000E-04
    239     (1,13,11)             1.00000000E-04
    240     (1,13,12)             1.00000000E-04
    241     (1,13,13)             1.00000000E-04
    242     (1,13,14)             1.00000000E-04
    243     (1,13,15)             1.00000000E-04
    244     (1,13,16)             1.00000000E-04
    245     (1,13,17)             1.00000000E-04
    246     (1,13,18)             1.00000000E-04
    247     (1,13,19)             1.00000000E-04
    255     (1,14,8)              1.00000000E-04
    256     (1,14,9)              1.00000000E-04
    257     (1,14,10)             1.00000000E-04
    258     (1,14,11)             1.00000000E-04
    259     (1,14,12)             1.00000000E-04
    260     (1,14,13)             1.00000000E-04
    261     (1,14,14)             1.00000000E-04
    262     (1,14,15)             1.00000000E-04
    263     (1,14,16)             1.00000000E-04
    264     (1,14,17)             1.00000000E-04
    265     (1,14,18)             1.00000000E-04
    266     (1,14,19)             1.00000000E-04
    274     (1,15,8)              1.00000000E-04
    275     (1,15,9)              1.00000000E-04
    276     (1,15,10)             1.00000000E-04
    277     (1,15,11)             1.00000000E-04
    278     (1,15,12)             1.00000000E-04
    279     (1,15,13)             1.00000000E-04
    280     (1,15,14)             1.00000000E-04
    281     (1,15,15)             1.00000000E-04
    282     (1,15,16)             1.00000000E-04
    283     (1,15,17)             1.00000000E-04
    284     (1,15,18)             1.00000000E-04
    285     (1,15,19)             1.00000000E-04
    293     (1,16,8)              1.00000000E-04
    294     (1,16,9)              1.00000000E-04
    295     (1,16,10)             1.00000000E-04
    296     (1,16,11)             1.00000000E-04
    297     (1,16,12)             1.00000000E-04
    298     (1,16,13)             1.00000000E-04
    299     (1,16,14)             1.00000000E-04
    300     (1,16,15)             1.00000000E-04
    301     (1,16,16)             1.00000000E-04
    302     (1,16,17)             1.00000000E-04
    303     (1,16,18)             1.00000000E-04
    304     (1,16,19)             1.00000000E-04
    313     (1,17,9)              1.00000000E-04
    314     (1,17,10)             1.00000000E-04
    315     (1,17,11)             1.00000000E-04
    316     (1,17,12)             1.00000000E-04
    317     (1,17,13)             1.00000000E-04
    318     (1,17,14)             1.00000000E-04
    319     (1,17,15)             1.00000000E-04
    320     (1,17,16)             1.00000000E-04
    321     (1,17,17)             1.00000000E-04
    322     (1,17,18)             1.00000000E-04
    323     (1,17,19)             1.00000000E-04
    332     (1,18,9)              1.00000000E-04
    333     (1,18,10)             1.00000000E-04
    334     (1,18,11)             1.00000000E-04
    335     (1,18,12)             1.00000000E-04
    336     (1,18,13)             1.00000000E-04
    337     (1,18,14)             1.00000000E-04
    338     (1,18,15)             1.00000000E-04
    339     (1,18,16)             1.00000000E-04
    340     (1,18,17)             1.00000000E-04
    341     (1,18,18)             1.00000000E-04
    342     (1,18,19)             1.00000000E-04
    352     (1,19,10)             1.00000000E-04
    353     (1,19,11)             1.00000000E-04
    354     (1,19,12)             1.00000000E-04
    355     (1,19,13)             1.00000000E-04
    356     (1,19,14)             1.00000000E-04
    357     (1,19,15)             1.00000000E-04
    358     (1,19,16)             1.00000000E-04
    359     (1,19,17)             1.00000000E-04
    360     (1,19,18)             1.00000000E-04
    361     (1,19,19)             1.00000000E-04
    371     (1,20,10)             1.00000000E-04
    372     (1,20,11)             1.00000000E-04
    373     (1,20,12)             1.00000000E-04
    374     (1,20,13)             1.00000000E-04
    375     (1,20,14)             1.00000000E-04
    376     (1,20,15)             1.00000000E-04
    377     (1,20,16)             1.00000000E-04
    378     (1,20,17)             1.00000000E-04
    379     (1,20,18)             1.00000000E-04
    380     (1,20,19)             1.00000000E-04
    391     (1,21,11)             1.00000000E-04
    392     (1,21,12)             1.00000000E-04
    393     (1,21,13)             1.00000000E-04
    394     (1,21,14)             1.00000000E-04
    395     (1,21,15)             1.00000000E-04
    396     (1,21,16)             1.00000000E-04
    397     (1,21,17)             1.00000000E-04
    398     (1,21,18)             1.00000000E-04
    399     (1,21,19)             1.00000000E-04
    410     (1,22,11)             1.00000000E-04
    411     (1,22,12)             1.00000000E-04
    412     (1,22,13)             1.00000000E-04
    413     (1,22,14)             1.00000000E-04
    414     (1,22,15)             1.00000000E-04
    415     (1,22,16)             1.00000000E-04
    416     (1,22,17)             1.00000000E-04
    417     (1,22,18)             1.00000000E-04
    418     (1,22,19)             1.00000000E-04
    430     (1,23,12)             1.00000000E-04
    431     (1,23,13)             1.00000000E-04
    432     (1,23,14)             1.00000000E-04
    433     (1,23,15)             1.00000000E-04
    434     (1,23,16)             1.00000000E-04
    435     (1,23,17)             1.00000000E-04
    436     (1,23,18)             1.00000000E-04
    437     (1,23,19)             1.00000000E-04
    449     (1,24,12)             1.00000000E-04
    450     (1,24,13)             1.00000000E-04
    451     (1,24,14)             1.00000000E-04
    452     (1,24,15)             1.00000000E-04
    453     (1,24,16)             1.00000000E-04
    454     (1,24,17)             1.00000000E-04
    455     (1,24,18)             1.00000000E-04
    456     (1,24,19)             1.00000000E-04
    469     (1,25,13)             1.00000000E-04
    470     (1,25,14)             1.00000000E-04
    471     (1,25,15)             1.00000000E-04
    472     (1,25,16)             1.00000000E-04
    473     (1,25,17)             1.00000000E-04
    474     (1,25,18)             1.00000000E-04
    475     (1,25,19)             1.00000000E-04
    488     (1,26,13)             1.00000000E-04
    489     (1,26,14)             1.00000000E-04
    490     (1,26,15)             1.00000000E-04
    491     (1,26,16)             1.00000000E-04
    492     (1,26,17)             1.00000000E-04
    493     (1,26,18)             1.00000000E-04
    494     (1,26,19)             1.00000000E-04
    508     (1,27,14)             1.00000000E-04
    509     (1,27,15)             1.00000000E-04
    510     (1,27,16)             1.00000000E-04
    511     (1,27,17)             1.00000000E-04
    512     (1,27,18)             1.00000000E-04
    513     (1,27,19)             1.00000000E-04
    527     (1,28,14)             1.00000000E-04
    528     (1,28,15)             1.00000000E-04
    529     (1,28,16)             1.00000000E-04
    530     (1,28,17)             1.00000000E-04
    531     (1,28,18)             1.00000000E-04
    532     (1,28,19)             1.00000000E-04
    547     (1,29,15)             1.00000000E-04
    548     (1,29,16)             1.00000000E-04
    549     (1,29,17)             1.00000000E-04
    550     (1,29,18)             1.00000000E-04
    551     (1,29,19)             1.00000000E-04
    566     (1,30,15)             1.00000000E-04
    567     (1,30,16)             1.00000000E-04
    568     (1,30,17)             1.00000000E-04
    569     (1,30,18)             1.00000000E-04
    570     (1,30,19)             1.00000000E-04
    586     (1,31,16)             1.00000000E-04
    587     (1,31,17)             1.00000000E-04
    588     (1,31,18)             1.00000000E-04
    589     (1,31,19)             1.00000000E-04
    605     (1,32,16)             1.00000000E-04
    606     (1,32,17)             1.00000000E-04
    607     (1,32,18)             1.00000000E-04
    608     (1,32,19)             1.00000000E-04
    625     (1,33,17)             1.00000000E-04
    626     (1,33,18)             1.00000000E-04
    627     (1,33,19)             1.00000000E-04
    644     (1,34,17)             1.00000000E-04
    645     (1,34,18)             1.00000000E-04
    646     (1,34,19)             1.00000000E-04
    664     (1,35,18)             1.00000000E-04
    665     (1,35,19)             1.00000000E-04
    683     (1,36,18)             1.00000000E-04
 -----------------------------------------------




 HEAD WILL BE SAVED ON UNIT 1033 AT END OF TIME STEP    1, STRESS PERIOD    1


  VOLUME BUDGET FOR ENTIRE MODEL AT END OF TIME STEP    1, STRESS PERIOD   1
  ---------------------------------------------------------------------------------------------------

     CUMULATIVE VOLUME      L**3       RATES FOR THIS TIME STEP      L**3/T          PACKAGE NAME    
     ------------------                 ------------------------                     ----------------

           IN:                                      IN:
           ---                                      ---
              STO-SS =           0.0000                STO-SS =           0.0000     STORAGE                          
              STO-SY =           0.0000                STO-SY =           0.0000     STORAGE                          
                 WEL =           0.0000                   WEL =           0.0000     WEL-1                            
                 RIV =       4.1940E-02                   RIV =       4.1940E-03     RIV-1                            
                RCHA =           0.3660                  RCHA =       3.6600E-02     RCH-1                            
        FLOW-JA-FACE =           0.1303          FLOW-JA-FACE =       1.3025E-02     GWF-GWF_1                        
    FLOW-JA-FACE-CHD =           0.0000      FLOW-JA-FACE-CHD =           0.0000     GWF-GWF_1                        

            TOTAL IN =           0.5382              TOTAL IN =       5.3819E-02

          OUT:                                     OUT:
          ----                                     ----
              STO-SS =           0.0000                STO-SS =           0.0000     STORAGE                          
              STO-SY =           0.0000                STO-SY =           0.0000     STORAGE                          
                 WEL =           0.1620                   WEL =       1.6200E-02     WEL-1                            
                 RIV =           0.3424                   RIV =       3.4240E-02     RIV-1                            
                RCHA =           0.0000                  RCHA =           0.0000     RCH-1                            
        FLOW-JA-FACE =       3.3794E-02          FLOW-JA-FACE =       3.3794E-03     GWF-GWF_1                        
    FLOW-JA-FACE-CHD =           0.0000      FLOW-JA-FACE-CHD =           0.0000     GWF-GWF_1                        

           TOTAL OUT =           0.5382             TOTAL OUT =       5.3819E-02

            IN - OUT =      -1.4516E-10              IN - OUT =      -1.4516E-11

 PERCENT DISCREPANCY =          -0.00     PERCENT DISCREPANCY =          -0.00




         TIME SUMMARY AT END OF TIME STEP    1 IN STRESS PERIOD    1
                    SECONDS     MINUTES      HOURS       DAYS        YEARS
                    -----------------------------------------------------------
   TIME STEP LENGTH  10.000     0.16667     2.77778E-03 1.15741E-04 3.16881E-07
 STRESS PERIOD TIME  10.000     0.16667     2.77778E-03 1.15741E-04 3.16881E-07
         TOTAL TIME  10.000     0.16667     2.77778E-03 1.15741E-04 3.16881E-07


end timestep

