                                   MODFLOW 6
                U.S. GEOLOGICAL SURVEY MODULAR HYDROLOGIC MODEL
                          GROUNDWATER FLOW MODEL (GWF)
                   VERSION 6.3.0 release candidate 02/06/2022
                               ***DEVELOP MODE***

   MODFLOW 6 compiled Feb 06 2022 02:35:51 with Intel(R) Fortran Intel(R) 64
   Compiler Classic for applications running on Intel(R) 64, Version 2021.5.0
                             Build 20211109_000000

This software is preliminary or provisional and is subject to 
revision. It is being provided to meet the need for timely best 
science. The software has not received final approval by the U.S. 
Geological Survey (USGS). No warranty, expressed or implied, is made 
by the USGS or the U.S. Government as to the functionality of the 
software and related material nor shall the fact of release 
constitute any such warranty. The software is provided on the 
condition that neither the USGS nor the U.S. Government shall be held 
liable for any damages resulting from the authorized or unauthorized 
use of the software.


As a work of the United States Government, this USGS product is 
in the public domain within the United States. You can copy, 
modify, distribute, and perform the work, even for commercial 
purposes, all without asking permission. Additionally, USGS 
waives copyright and related rights in the work worldwide 
through CC0 1.0 Universal Public Domain Dedication 
(https://creativecommons.org/publicdomain/zero/1.0/).

The following GNU Lesser General Public License (LGPL) libraries
are used in this USGS product:

    SPARSKIT version 2.0
      ilut, luson, and qsplit 
      (https://www-users.cse.umn.edu/~saad/software/SPARSKIT/)

    RCM - Reverse Cuthill McKee Ordering
      (https://people.math.sc.edu/Burkardt/f_src/rcm/rcm.html)

    BLAS - Basic Linear Algebra Subprograms Level 1
      (https://people.math.sc.edu/Burkardt/f_src/blas1_d/blas1_d.html)

    SPARSEKIT - Sparse Matrix Utility Package
      amux, dperm, dvperm, rperm, and cperm
      (https://people.sc.fsu.edu/~jburkardt/f77_src/sparsekit/sparsekit.html)

The following BSD-3 License libraries are used in this USGS product:

    Modern Fortran DAG Library
      Copyright (c) 2018, Jacob Williams
      All rights reserved.
      (https://github.com/jacobwilliams/daglib)

MODFLOW 6 compiler options: /O2 /heap-arrays:0 /fpe:0 /traceback /nologo /fpp
/c /module:.\mod_temp\ /object:.\obj_temp\

System command used to initiate simulation:
mf6.exe

MODFLOW was compiled using uniform precision.

Real Variables
  KIND: 8
  TINY (smallest non-zero value):    2.225074-308
  HUGE (largest value):    1.797693+308
  PRECISION: 15
  BIT SIZE: 64

Integer Variables
  KIND: 4
  HUGE (largest value): 2147483647
  BIT SIZE: 32

Long Integer Variables
  KIND: 8
  HUGE (largest value): 9223372036854775807
  BIT SIZE: 64

Logical Variables
  KIND: 4
  BIT SIZE: 32
 

 OPENED freyberg6.dis
 FILE TYPE:DIS6                   UNIT 1005   STATUS:OLD                 
 FORMAT:FORMATTED              ACCESS:SEQUENTIAL          
 ACTION:READ                


 OPENED freyberg6.ic
 FILE TYPE:IC6                    UNIT 1006   STATUS:OLD                 
 FORMAT:FORMATTED              ACCESS:SEQUENTIAL          
 ACTION:READ                


 OPENED freyberg6.npf
 FILE TYPE:NPF6                   UNIT 1007   STATUS:OLD                 
 FORMAT:FORMATTED              ACCESS:SEQUENTIAL          
 ACTION:READ                


 OPENED freyberg6.sto
 FILE TYPE:STO6                   UNIT 1008   STATUS:OLD                 
 FORMAT:FORMATTED              ACCESS:SEQUENTIAL          
 ACTION:READ                


 OPENED freyberg6.oc
 FILE TYPE:OC6                    UNIT 1009   STATUS:OLD                 
 FORMAT:FORMATTED              ACCESS:SEQUENTIAL          
 ACTION:READ                


 OPENED freyberg6.wel
 FILE TYPE:WEL6                   UNIT 1010   STATUS:OLD                 
 FORMAT:FORMATTED              ACCESS:SEQUENTIAL          
 ACTION:READ                


 OPENED freyberg6.rch
 FILE TYPE:RCH6                   UNIT 1011   STATUS:OLD                 
 FORMAT:FORMATTED              ACCESS:SEQUENTIAL          
 ACTION:READ                


 OPENED freyberg6.ghb
 FILE TYPE:GHB6                   UNIT 1012   STATUS:OLD                 
 FORMAT:FORMATTED              ACCESS:SEQUENTIAL          
 ACTION:READ                


 OPENED freyberg6.sfr
 FILE TYPE:SFR6                   UNIT 1013   STATUS:OLD                 
 FORMAT:FORMATTED              ACCESS:SEQUENTIAL          
 ACTION:READ                


 OPENED freyberg6.obs
 FILE TYPE:OBS6                   UNIT 1014   STATUS:OLD                 
 FORMAT:FORMATTED              ACCESS:SEQUENTIAL          
 ACTION:READ                

 NAMEFILE OPTIONS:
    NEWTON-RAPHSON method enabled for the model.

 DIS -- STRUCTURED GRID DISCRETIZATION PACKAGE, VERSION 2 : 3/27/2014 - INPUT READ FROM UNIT 1005


 PROCESSING DISCRETIZATION OPTIONS
    MODEL LENGTH UNIT IS METERS
 END OF DISCRETIZATION OPTIONS
 PROCESSING DISCRETIZATION DIMENSIONS
    NLAY =       1
    NROW =      40
    NCOL =      20
 END OF DISCRETIZATION DIMENSIONS
 PROCESSING GRIDDATA

 OPENED freyberg6.dis_delr.txt
 FILE TYPE:OPEN/CLOSE   UNIT 1016   STATUS:OLD                 
 FORMAT:FORMATTED              ACCESS:SEQUENTIAL          
 ACTION:READ                


 OPENED freyberg6.dis_delc.txt
 FILE TYPE:OPEN/CLOSE   UNIT 1017   STATUS:OLD                 
 FORMAT:FORMATTED              ACCESS:SEQUENTIAL          
 ACTION:READ                


 OPENED freyberg6.dis_top.txt
 FILE TYPE:OPEN/CLOSE   UNIT 1018   STATUS:OLD                 
 FORMAT:FORMATTED              ACCESS:SEQUENTIAL          
 ACTION:READ                


 OPENED freyberg6.dis_botm_layer1.txt
 FILE TYPE:OPEN/CLOSE   UNIT 1019   STATUS:OLD                 
 FORMAT:FORMATTED              ACCESS:SEQUENTIAL          
 ACTION:READ                


 OPENED freyberg6.dis_idomain_layer1.txt
 FILE TYPE:OPEN/CLOSE   UNIT 1020   STATUS:OLD                 
 FORMAT:FORMATTED              ACCESS:SEQUENTIAL          
 ACTION:READ                

 END PROCESSING GRIDDATA

 THE SPECIFIED IDOMAIN RESULTS IN A REDUCED NUMBER OF CELLS.
 NUMBER OF USER NODES: 800
 NUMBER OF NODES IN SOLUTION: 706



 NPF -- NODE PROPERTY FLOW PACKAGE, VERSION 1, 3/30/2015 INPUT READ FROM UNIT 1007


 PROCESSING NPF OPTIONS
    CELL-BY-CELL FLOW INFORMATION WILL BE SAVED TO BINARY FILE WHENEVER ICBCFL IS NOT ZERO.
 END OF NPF OPTIONS

 WEL   -- WEL PACKAGE, VERSION 8, 2/22/2014 INPUT READ FROM UNIT 1010

 PROCESSING WEL OPTIONS
    LISTS OF WEL CELLS WILL BE PRINTED.
    WEL FLOWS WILL BE PRINTED TO LISTING FILE.
    FLOWS WILL BE SAVED TO BUDGET FILE SPECIFIED IN OUTPUT CONTROL
 END OF WEL OPTIONS

 PROCESSING WEL DIMENSIONS
    MAXBOUND =       7
 END OF WEL DIMENSIONS

 GHB   -- GHB PACKAGE, VERSION 8, 2/22/2014 INPUT READ FROM UNIT 1012

 PROCESSING GHB OPTIONS
    LISTS OF GHB CELLS WILL BE PRINTED.
    GHB FLOWS WILL BE PRINTED TO LISTING FILE.
    FLOWS WILL BE SAVED TO BUDGET FILE SPECIFIED IN OUTPUT CONTROL
 END OF GHB OPTIONS

 PROCESSING GHB DIMENSIONS
    MAXBOUND =      30
 END OF GHB DIMENSIONS

 RCH   -- RCH PACKAGE, VERSION 8, 2/22/2014 INPUT READ FROM UNIT 1011

 PROCESSING RCH OPTIONS
    RECHARGE INPUT WILL BE READ AS ARRAY(S).
    FLOWS WILL BE SAVED TO BUDGET FILE SPECIFIED IN OUTPUT CONTROL
 END OF RCHA OPTIONS

 SFR   -- SFR PACKAGE, VERSION 8, 2/22/2014 INPUT READ FROM UNIT 1013

 PROCESSING SFR OPTIONS
    SFR BOUNDARIES HAVE NAMES IN LAST COLUMN.
    LISTS OF SFR CELLS WILL BE PRINTED.
    FLOWS WILL BE SAVED TO BUDGET FILE SPECIFIED IN OUTPUT CONTROL

 OPENED sfr.obs
 FILE TYPE:OBS   UNIT 1021   STATUS:OLD                 
 FORMAT:FORMATTED              ACCESS:SEQUENTIAL          
 ACTION:READ                

    MAXIMUM DEPTH CHANGE VALUE (.1000000000000000E-03) SPECIFIED.
    UNIT CONVERSION VALUE (86400.00000000000) SPECIFIED.
 END OF SFR OPTIONS

 PROCESSING SFR DIMENSIONS
    NREACHES = 40
 END OF SFR DIMENSIONS

 OPENED freyberg6.sfr_packagedata.txt
 FILE TYPE:OPEN/CLOSE   UNIT 1022   STATUS:OLD                 
 FORMAT:FORMATTED              ACCESS:SEQUENTIAL          
 ACTION:READ                


 PROCESSING SFR PACKAGEDATA
 END OF SFR PACKAGEDATA

 OPENED freyberg6.sfr_connectiondata.txt
 FILE TYPE:OPEN/CLOSE   UNIT 1023   STATUS:OLD                 
 FORMAT:FORMATTED              ACCESS:SEQUENTIAL          
 ACTION:READ                


 PROCESSING SFR CONNECTIONDATA
 END OF SFR CONNECTIONDATA

 IC -- INITIAL CONDITIONS PACKAGE, VERSION 8, 3/28/2015 INPUT READ FROM UNIT 1006
 PROCESSING GRIDDATA

 OPENED freyberg6.ic_strt_layer1.txt
 FILE TYPE:OPEN/CLOSE   UNIT 1024   STATUS:OLD                 
 FORMAT:FORMATTED              ACCESS:SEQUENTIAL          
 ACTION:READ                

 END PROCESSING GRIDDATA
 PROCESSING GRIDDATA

 OPENED freyberg6.npf_icelltype_layer1.txt
 FILE TYPE:OPEN/CLOSE   UNIT 1025   STATUS:OLD                 
 FORMAT:FORMATTED              ACCESS:SEQUENTIAL          
 ACTION:READ                


 OPENED freyberg6.npf_k_layer1.txt
 FILE TYPE:OPEN/CLOSE   UNIT 1026   STATUS:OLD                 
 FORMAT:FORMATTED              ACCESS:SEQUENTIAL          
 ACTION:READ                


 OPENED freyberg6.npf_k33_layer1.txt
 FILE TYPE:OPEN/CLOSE   UNIT 1027   STATUS:OLD                 
 FORMAT:FORMATTED              ACCESS:SEQUENTIAL          
 ACTION:READ                

 K22 not provided.  Assuming K22 = K.
 END PROCESSING GRIDDATA

 STO -- STORAGE PACKAGE, VERSION 1, 5/19/2014 INPUT READ FROM UNIT 1008


 PROCESSING STORAGE OPTIONS
 END OF STORAGE OPTIONS
 PROCESSING GRIDDATA

 OPENED freyberg6.sto_iconvert_layer1.txt
 FILE TYPE:OPEN/CLOSE   UNIT 1028   STATUS:OLD                 
 FORMAT:FORMATTED              ACCESS:SEQUENTIAL          
 ACTION:READ                


 OPENED freyberg6.sto_ss_layer1.txt
 FILE TYPE:OPEN/CLOSE   UNIT 1029   STATUS:OLD                 
 FORMAT:FORMATTED              ACCESS:SEQUENTIAL          
 ACTION:READ                


 OPENED freyberg6.sto_sy_layer1.txt
 FILE TYPE:OPEN/CLOSE   UNIT 1030   STATUS:OLD                 
 FORMAT:FORMATTED              ACCESS:SEQUENTIAL          
 ACTION:READ                

 END PROCESSING GRIDDATA

The observation utility is active for "FREYBERG6"

Processing observation options:

Text output number of digits of precision set to: 10
The PRINT_INPUT option has been specified.


 OBSERVATIONS READ FROM FILE "freyberg6.obs"
 ----------------------------------------------------------------------------------------------------------------------------------------------------------------------------------------------------------------------------
 NAME                                     TYPE                                       TIME         LOCATION DATA                              OUTPUT FILENAME                                                                 
 ----------------------------------------------------------------------------------------------------------------------------------------------------------------------------------------------------------------------------
 TRGW-0-2-15                              CONTINUOUS  HEAD                           ALL TIMES    "  1 3 16"                                 heads.csv                                                                       
 TRGW-0-2-9                               CONTINUOUS  HEAD                           ALL TIMES    "  1 3 10"                                 heads.csv                                                                       
 TRGW-0-3-8                               CONTINUOUS  HEAD                           ALL TIMES    "  1 4 9"                                  heads.csv                                                                       
 TRGW-0-9-1                               CONTINUOUS  HEAD                           ALL TIMES    "  1 10 2"                                 heads.csv                                                                       
 TRGW-0-13-10                             CONTINUOUS  HEAD                           ALL TIMES    "  1 14 11"                                heads.csv                                                                       
 TRGW-0-15-16                             CONTINUOUS  HEAD                           ALL TIMES    "  1 16 17"                                heads.csv                                                                       
 TRGW-0-21-10                             CONTINUOUS  HEAD                           ALL TIMES    "  1 22 11"                                heads.csv                                                                       
 TRGW-0-22-15                             CONTINUOUS  HEAD                           ALL TIMES    "  1 23 16"                                heads.csv                                                                       
 TRGW-0-24-4                              CONTINUOUS  HEAD                           ALL TIMES    "  1 25 5"                                 heads.csv                                                                       
 TRGW-0-26-6                              CONTINUOUS  HEAD                           ALL TIMES    "  1 27 7"                                 heads.csv                                                                       
 TRGW-0-29-15                             CONTINUOUS  HEAD                           ALL TIMES    "  1 30 16"                                heads.csv                                                                       
 TRGW-0-33-7                              CONTINUOUS  HEAD                           ALL TIMES    "  1 34 8"                                 heads.csv                                                                       
 TRGW-0-34-10                             CONTINUOUS  HEAD                           ALL TIMES    "  1 35 11"                                heads.csv                                                                       
 ----------------------------------------------------------------------------------------------------------------------------------------------------------------------------------------------------------------------------


    BINARY GRID INFORMATION WILL BE WRITTEN TO:
      UNIT NUMBER: 1032
      FILE NAME: E:\15_REPOS\00_BETAMI\01_GMDSI_____advanced\01_Tutorials___AGAIN___\part2_01_pstfromSETUP______ok\v1_Pstfrom_Beta_new_folder\freyberg6.dis.grb

 OPENED E:\15_REPOS\00_BETAMI\01_GMDSI_____advanced\01_Tutorials___AGAIN___\part2_01_pstfromSETUP______ok\v1_Pstfrom_Beta_new_folder\freyberg6.dis.grb
 FILE TYPE:DATA(BINARY)   UNIT 1032   STATUS:REPLACE             
 FORMAT:UNFORMATTED            ACCESS:STREAM              
 ACTION:READWRITE           

      THE LAST TIME STEP WILL BE PRINTED
      THE LAST TIME STEP WILL BE PRINTED

 PROCESSING OC OPTIONS

    BUDGET INFORMATION WILL BE WRITTEN TO:
      UNIT NUMBER: 1033
      FILE NAME: freyberg6_freyberg.cbc

 OPENED freyberg6_freyberg.cbc
 FILE TYPE:DATA(BINARY)   UNIT 1033   STATUS:REPLACE             
 FORMAT:UNFORMATTED            ACCESS:STREAM              
 ACTION:READWRITE           

    HEAD INFORMATION WILL BE WRITTEN TO:
      UNIT NUMBER: 1034
      FILE NAME: freyberg6_freyberg.hds

 OPENED freyberg6_freyberg.hds
 FILE TYPE:DATA(BINARY)   UNIT 1034   STATUS:REPLACE             
 FORMAT:UNFORMATTED            ACCESS:STREAM              
 ACTION:READWRITE           

 END OF OC OPTIONS

The observation utility is active for "SFR_1"

Processing observation options:



 SFR PACKAGE (SFR_1) STATIC REACH DATA
 ---------------------------------------------------------------------------------------------------------------------------------------
                                                                                                                              UPSTREAM  
   NUMBER   CELLID                  LENGTH       WIDTH        SLOPE         TOP       THICKNESS        HK       ROUGHNESS     FRACTION  
 ---------------------------------------------------------------------------------------------------------------------------------------
     1      (1,1,16)              250.00       5.0000       5.00000E-05  34.000       1.0000       0.18605      3.00000E-02  1.0000     
     2      (1,2,16)              250.00       5.0000       5.00000E-05  33.987       1.0000       0.18605      3.00000E-02  1.0000     
     3      (1,3,16)              250.00       5.0000       5.00000E-05  33.974       1.0000       0.18605      3.00000E-02  1.0000     
     4      (1,4,16)              250.00       5.0000       5.00000E-05  33.962       1.0000       0.18605      3.00000E-02  1.0000     
     5      (1,5,16)              250.00       5.0000       5.00000E-05  33.949       1.0000       0.18605      3.00000E-02  1.0000     
     6      (1,6,16)              250.00       5.0000       5.00000E-05  33.936       1.0000       0.18605      3.00000E-02  1.0000     
     7      (1,7,16)              250.00       5.0000       5.00000E-05  33.923       1.0000       0.18605      3.00000E-02  1.0000     
     8      (1,8,16)              250.00       5.0000       5.00000E-05  33.910       1.0000       0.18605      3.00000E-02  1.0000     
     9      (1,9,16)              250.00       5.0000       5.00000E-05  33.897       1.0000       0.18605      3.00000E-02  1.0000     
     10     (1,10,16)             250.00       5.0000       5.00000E-05  33.885       1.0000       0.18605      3.00000E-02  1.0000     
     11     (1,11,16)             250.00       5.0000       5.00000E-05  33.872       1.0000       0.18605      3.00000E-02  1.0000     
     12     (1,12,16)             250.00       5.0000       5.00000E-05  33.859       1.0000       0.18605      3.00000E-02  1.0000     
     13     (1,13,16)             250.00       5.0000       5.00000E-05  33.846       1.0000       0.18605      3.00000E-02  1.0000     
     14     (1,14,16)             250.00       5.0000       5.00000E-05  33.833       1.0000       0.18605      3.00000E-02  1.0000     
     15     (1,15,16)             250.00       5.0000       5.00000E-05  33.821       1.0000       0.18605      3.00000E-02  1.0000     
     16     (1,16,16)             250.00       5.0000       5.00000E-05  33.808       1.0000       0.18605      3.00000E-02  1.0000     
     17     (1,17,16)             250.00       5.0000       5.00000E-05  33.795       1.0000       0.18605      3.00000E-02  1.0000     
     18     (1,18,16)             250.00       5.0000       5.00000E-05  33.782       1.0000       0.18605      3.00000E-02  1.0000     
     19     (1,19,16)             250.00       5.0000       5.00000E-05  33.769       1.0000       0.18605      3.00000E-02  1.0000     
     20     (1,20,16)             250.00       5.0000       5.00000E-05  33.756       1.0000       0.18605      3.00000E-02  1.0000     
     21     (1,21,16)             250.00       5.0000       5.00000E-05  33.744       1.0000       0.18605      3.00000E-02  1.0000     
     22     (1,22,16)             250.00       5.0000       5.00000E-05  33.731       1.0000       0.18605      3.00000E-02  1.0000     
     23     (1,23,16)             250.00       5.0000       5.00000E-05  33.718       1.0000       0.18605      3.00000E-02  1.0000     
     24     (1,24,16)             250.00       5.0000       5.00000E-05  33.705       1.0000       0.18605      3.00000E-02  1.0000     
     25     (1,25,16)             250.00       5.0000       5.00000E-05  33.692       1.0000       0.18605      3.00000E-02  1.0000     
     26     (1,26,16)             250.00       5.0000       5.00000E-05  33.679       1.0000       0.18605      3.00000E-02  1.0000     
     27     (1,27,16)             250.00       5.0000       5.00000E-05  33.667       1.0000       0.18605      3.00000E-02  1.0000     
     28     (1,28,16)             250.00       5.0000       5.00000E-05  33.654       1.0000       0.18605      3.00000E-02  1.0000     
     29     (1,29,16)             250.00       5.0000       5.00000E-05  33.641       1.0000       0.18605      3.00000E-02  1.0000     
     30     (1,30,16)             250.00       5.0000       5.00000E-05  33.628       1.0000       0.18605      3.00000E-02  1.0000     
     31     (1,31,16)             250.00       5.0000       5.00000E-05  33.615       1.0000       0.18605      3.00000E-02  1.0000     
     32     (1,32,16)             250.00       5.0000       5.00000E-05  33.603       1.0000       0.18605      3.00000E-02  1.0000     
     33     (1,33,16)             250.00       5.0000       5.00000E-05  33.590       1.0000       0.18605      3.00000E-02  1.0000     
     34     (1,34,16)             250.00       5.0000       5.00000E-05  33.577       1.0000       0.18605      3.00000E-02  1.0000     
     35     (1,35,16)             250.00       5.0000       5.00000E-05  33.564       1.0000       0.18605      3.00000E-02  1.0000     
     36     (1,36,16)             250.00       5.0000       5.00000E-05  33.551       1.0000       0.18605      3.00000E-02  1.0000     
     37     (1,37,16)             250.00       5.0000       5.00000E-05  33.538       1.0000       0.18605      3.00000E-02  1.0000     
     38     (1,38,16)             250.00       5.0000       5.00000E-05  33.526       1.0000       0.18605      3.00000E-02  1.0000     
     39     (1,39,16)             250.00       5.0000       5.00000E-05  33.513       1.0000       0.18605      3.00000E-02  1.0000     
     40     (1,40,16)             250.00       5.0000       5.00000E-05  33.510       1.0000       0.18605      3.00000E-02  1.0000     
 ---------------------------------------------------------------------------------------------------------------------------------------



 SFR PACKAGE (SFR_1) STATIC REACH CONNECTION DATA
 --------------------------------
   REACH      CONN 1     CONN 2  
 --------------------------------
     1          2                
     2          1          3     
     3          2          4     
     4          3          5     
     5          4          6     
     6          5          7     
     7          6          8     
     8          7          9     
     9          8          10    
     10         9          11    
     11         10         12    
     12         11         13    
     13         12         14    
     14         13         15    
     15         14         16    
     16         15         17    
     17         16         18    
     18         17         19    
     19         18         20    
     20         19         21    
     21         20         22    
     22         21         23    
     23         22         24    
     24         23         25    
     25         24         26    
     26         25         27    
     27         26         28    
     28         27         29    
     29         28         30    
     30         29         31    
     31         30         32    
     32         31         33    
     33         32         34    
     34         33         35    
     35         34         36    
     36         35         37    
     37         36         38    
     38         37         39    
     39         38         40    
     40         39               
 --------------------------------



 SFR PACKAGE (SFR_1) STATIC UPSTREAM REACH CONNECTION DATA
 ---------------------
             UPSTREAM 
   REACH      CONN 1  
 ---------------------
     1                
     2          1     
     3          2     
     4          3     
     5          4     
     6          5     
     7          6     
     8          7     
     9          8     
     10         9     
     11         10    
     12         11    
     13         12    
     14         13    
     15         14    
     16         15    
     17         16    
     18         17    
     19         18    
     20         19    
     21         20    
     22         21    
     23         22    
     24         23    
     25         24    
     26         25    
     27         26    
     28         27    
     29         28    
     30         29    
     31         30    
     32         31    
     33         32    
     34         33    
     35         34    
     36         35    
     37         36    
     38         37    
     39         38    
     40         39    
 ---------------------



 SFR PACKAGE (SFR_1) STATIC DOWNSTREAM REACH CONNECTION DATA
 ---------------------
            DOWNSTREAM
   REACH      CONN 1  
 ---------------------
     1          2     
     2          3     
     3          4     
     4          5     
     5          6     
     6          7     
     7          8     
     8          9     
     9          10    
     10         11    
     11         12    
     12         13    
     13         14    
     14         15    
     15         16    
     16         17    
     17         18    
     18         19    
     19         20    
     20         21    
     21         22    
     22         23    
     23         24    
     24         25    
     25         26    
     26         27    
     27         28    
     28         29    
     29         30    
     30         31    
     31         32    
     32         33    
     33         34    
     34         35    
     35         36    
     36         37    
     37         38    
     38         39    
     39         40    
     40               
 ---------------------



start timestep kper="1" kstp="1" mode="normal"


 BEGIN READING OUTPUT CONTROL FOR STRESS PERIOD 1
      THE LAST TIME STEP WILL BE SAVED
      THE LAST TIME STEP WILL BE SAVED
      THE LAST TIME STEP WILL BE PRINTED

 END READING OUTPUT CONTROL FOR STRESS PERIOD 1


 PROCESSING STORAGE PERIOD DATA
 END PROCESSING STORAGE PERIOD DATA


 STRESS PERIOD 1 IS TRANSIENT


 OPENED freyberg6.wel_stress_period_data_1.txt
 FILE TYPE:OPEN/CLOSE   UNIT 1036   STATUS:OLD                 
 FORMAT:FORMATTED              ACCESS:SEQUENTIAL          
 ACTION:READ                

 ---------------------------------------------------
  WEL NO.    LAYER    ROW     COL     STRESS RATE   
 ---------------------------------------------------
     1         1      10      17    -94.7605753     
     2         1      12      14    -94.7605753     
     3         1      21      15    -94.7605753     
     4         1      27      11    -94.7605753     
     5         1      30       7    -94.7605753     
     6         1      35      13    -94.7605753     
     7         1      25       5     0.00000000     
 ---------------------------------------------------



 OPENED freyberg6.ghb_stress_period_data_1.txt
 FILE TYPE:OPEN/CLOSE   UNIT 1037   STATUS:OLD                 
 FORMAT:FORMATTED              ACCESS:SEQUENTIAL          
 ACTION:READ                

 --------------------------------------------------------------------
  GHB NO.    LAYER    ROW     COL        STAGE         CONDUCTANCE   
 --------------------------------------------------------------------
     1         1      40       6     34.0143096       52.8841636     
     2         1      40       7     34.0143096       52.8841636     
     3         1      40       8     34.0143096       52.8841636     
     4         1      40       9     34.0143096       52.8841636     
     5         1      40      10     34.0143096       52.8841636     
     6         1      40      11     34.0143096       52.8841636     
     7         1      40      12     34.0143096       52.8841636     
     8         1      40      13     34.0143096       52.8841636     
     9         1      40      14     34.0143096       52.8841636     
     10        1      40      15     34.0143096       52.8841636     
 --------------------------------------------------------------------



 OPENED freyberg6.rch_recharge_1.txt
 FILE TYPE:OPEN/CLOSE   UNIT 1038   STATUS:OLD                 
 FORMAT:FORMATTED              ACCESS:SEQUENTIAL          
 ACTION:READ                


 OPENED freyberg6.sfr_perioddata_1.txt
 FILE TYPE:OPEN/CLOSE   UNIT 1039   STATUS:OLD                 
 FORMAT:FORMATTED              ACCESS:SEQUENTIAL          
 ACTION:READ                


 SFR PACKAGE (SFR_1) DATA FOR PERIOD      1
 ---------------------------------------------------------------
   NUMBER   KEYWORD                  VALUE 1         VALUE 2    
 ---------------------------------------------------------------
     1      INFLOW               1087.0967940679                
 ---------------------------------------------------------------



 SFR PACKAGE (SFR_1) CONNECTED REACH UPSTREAM FRACTION DATA
 ----------------------------------
            DOWNSTREAM             
   REACH     REACH 1    FRACTION 1 
 ----------------------------------
     1          2       1.0000     
     2          3       1.0000     
     3          4       1.0000     
     4          5       1.0000     
     5          6       1.0000     
     6          7       1.0000     
     7          8       1.0000     
     8          9       1.0000     
     9          10      1.0000     
     10         11      1.0000     
     11         12      1.0000     
     12         13      1.0000     
     13         14      1.0000     
     14         15      1.0000     
     15         16      1.0000     
     16         17      1.0000     
     17         18      1.0000     
     18         19      1.0000     
     19         20      1.0000     
     20         21      1.0000     
     21         22      1.0000     
     22         23      1.0000     
     23         24      1.0000     
     24         25      1.0000     
     25         26      1.0000     
     26         27      1.0000     
     27         28      1.0000     
     28         29      1.0000     
     29         30      1.0000     
     30         31      1.0000     
     31         32      1.0000     
     32         33      1.0000     
     33         34      1.0000     
     34         35      1.0000     
     35         36      1.0000     
     36         37      1.0000     
     37         38      1.0000     
     38         39      1.0000     
     39         40      1.0000     
     40                            
 ----------------------------------


 UBDSV1 SAVING     FLOW-JA-FACE ON UNIT   1033 AT TIME STEP      1, STRESS PERIOD      1
 UBDSV06 SAVING              WEL IN MODEL FREYBERG6        PACKAGE FREYBERG6       CONNECTED TO MODEL FREYBERG6        PACKAGE WEL              ON UNIT   1033 AT TIME STEP      1, STRESS PERIOD      1
 UBDSV06 SAVING              GHB IN MODEL FREYBERG6        PACKAGE FREYBERG6       CONNECTED TO MODEL FREYBERG6        PACKAGE GHB              ON UNIT   1033 AT TIME STEP      1, STRESS PERIOD      1
 UBDSV06 SAVING             RCHA IN MODEL FREYBERG6        PACKAGE FREYBERG6       CONNECTED TO MODEL FREYBERG6        PACKAGE RCH              ON UNIT   1033 AT TIME STEP      1, STRESS PERIOD      1
 UBDSV06 SAVING              SFR IN MODEL FREYBERG6        PACKAGE FREYBERG6       CONNECTED TO MODEL FREYBERG6        PACKAGE SFR_1            ON UNIT   1033 AT TIME STEP      1, STRESS PERIOD      1

 WEL PACKAGE (WEL) FLOW RATES   PERIOD      1   STEP        1
 -----------------------------------------------
   NUMBER   CELLID                    RATE      
 -----------------------------------------------
     1      (1,10,17)            -94.760575     
     2      (1,12,14)            -94.760575     
     3      (1,21,15)            -94.760575     
     4      (1,27,11)            -94.760575     
     5      (1,30,7)             -94.760575     
     6      (1,35,13)            -94.760575     
     7      (1,25,5)              0.0000000     
 -----------------------------------------------




 GHB PACKAGE (GHB) FLOW RATES   PERIOD      1   STEP        1
 -----------------------------------------------
   NUMBER   CELLID                    RATE      
 -----------------------------------------------
     1      (1,40,6)             -21.907818     
     2      (1,40,7)             -21.270597     
     3      (1,40,8)             -19.794227     
     4      (1,40,9)             -17.907570     
     5      (1,40,10)            -15.420564     
     6      (1,40,11)            -12.419254     
     7      (1,40,12)            -9.1923780     
     8      (1,40,13)            -5.4717938     
     9      (1,40,14)            -1.2900279     
     10     (1,40,15)             3.7809351     
 -----------------------------------------------




 HEAD WILL BE SAVED ON UNIT 1034 AT END OF TIME STEP    1, STRESS PERIOD    1


  SFR_1 BUDGET FOR ENTIRE MODEL AT END OF TIME STEP    1, STRESS PERIOD   1
  ------------------------------------------------------------------------------

     CUMULATIVE SFR_1      L**3       RATES FOR THIS TIME STEP      L**3/T
     ------------------                 ------------------------

           IN:                                      IN:
           ---                                      ---
                 GWF =     8411215.1050                   GWF =        2302.8652
            RAINFALL =           0.0000              RAINFALL =           0.0000
         EVAPORATION =           0.0000           EVAPORATION =           0.0000
              RUNOFF =           0.0000                RUNOFF =           0.0000
          EXT-INFLOW =     3970621.0403            EXT-INFLOW =        1087.0968
         EXT-OUTFLOW =           0.0000           EXT-OUTFLOW =           0.0000
             STORAGE =           0.0000               STORAGE =           0.0000

            TOTAL IN =    12381836.1453              TOTAL IN =        3389.9620

          OUT:                                     OUT:
          ----                                     ----
                 GWF =           0.0000                   GWF =           0.0000
            RAINFALL =           0.0000              RAINFALL =           0.0000
         EVAPORATION =           0.0000           EVAPORATION =           0.0000
              RUNOFF =           0.0000                RUNOFF =           0.0000
          EXT-INFLOW =           0.0000            EXT-INFLOW =           0.0000
         EXT-OUTFLOW =    12381836.1453           EXT-OUTFLOW =        3389.9620
             STORAGE =           0.0000               STORAGE =           0.0000

           TOTAL OUT =    12381836.1453             TOTAL OUT =        3389.9620

            IN - OUT =       1.8626E-09              IN - OUT =       4.5475E-13

 PERCENT DISCREPANCY =           0.00     PERCENT DISCREPANCY =           0.00



  VOLUME BUDGET FOR ENTIRE MODEL AT END OF TIME STEP    1, STRESS PERIOD   1
  ---------------------------------------------------------------------------------------------------

     CUMULATIVE VOLUME      L**3       RATES FOR THIS TIME STEP      L**3/T          PACKAGE NAME    
     ------------------                 ------------------------                     ----------------

           IN:                                      IN:
           ---                                      ---
              STO-SS =       15752.6262                STO-SS =           4.3128     STORAGE                          
              STO-SY =      735030.7996                STO-SY =         201.2405     STORAGE                          
                 WEL =           0.0000                   WEL =           0.0000     WEL                              
                 GHB =       13809.8655                   GHB =           3.7809     GHB                              
                RCHA =    10827637.0518                  RCHA =        2964.4455     RCH                              
                 SFR =           0.0000                   SFR =           0.0000     SFR_1                            

            TOTAL IN =    11592230.3431              TOTAL IN =        3173.7797

          OUT:                                     OUT:
          ----                                     ----
              STO-SS =       10852.4301                STO-SS =           2.9712     STORAGE                          
              STO-SY =     1179958.8619                STO-SY =         323.0551     STORAGE                          
                 WEL =     2076678.0070                   WEL =         568.5635     WEL                              
                 GHB =      455372.6170                   GHB =         124.6742     GHB                              
                RCHA =           0.0000                  RCHA =           0.0000     RCH                              
                 SFR =     7911965.5363                   SFR =        2166.1781     SFR_1                            

           TOTAL OUT =    11634827.4523             TOTAL OUT =        3185.4421

            IN - OUT =      -42597.1092              IN - OUT =         -11.6625

 PERCENT DISCREPANCY =          -0.37     PERCENT DISCREPANCY =          -0.37




         TIME SUMMARY AT END OF TIME STEP    1 IN STRESS PERIOD    1
                    SECONDS     MINUTES      HOURS       DAYS        YEARS
                    -----------------------------------------------------------
   TIME STEP LENGTH 3.15576E+08 5.25960E+06  87660.      3652.5      10.000    
 STRESS PERIOD TIME 3.15576E+08 5.25960E+06  87660.      3652.5      10.000    
         TOTAL TIME 3.15576E+08 5.25960E+06  87660.      3652.5      10.000    


end timestep


start timestep kper="2" kstp="1" mode="normal"


 END OF FILE DETECTED IN OUTPUT CONTROL.
 CURRENT OUTPUT CONTROL SETTINGS WILL BE 
 REPEATED UNTIL THE END OF THE SIMULATION.

 OUTPUT CONTROL FOR STRESS PERIOD 2 IS REPEATED USING SETTINGS FROM A PREVIOUS STRESS PERIOD.


 PROCESSING STORAGE PERIOD DATA
 END PROCESSING STORAGE PERIOD DATA


 STRESS PERIOD 2 IS TRANSIENT


 OPENED freyberg6.wel_stress_period_data_2.txt
 FILE TYPE:OPEN/CLOSE   UNIT 1040   STATUS:OLD                 
 FORMAT:FORMATTED              ACCESS:SEQUENTIAL          
 ACTION:READ                

 ---------------------------------------------------
  WEL NO.    LAYER    ROW     COL     STRESS RATE   
 ---------------------------------------------------
     1         1      10      17    -114.427564     
     2         1      12      14    -114.427564     
     3         1      21      15    -114.427564     
     4         1      27      11    -114.427564     
     5         1      30       7    -114.427564     
     6         1      35      13    -114.427564     
     7         1      25       5     0.00000000     
 ---------------------------------------------------



 REUSING GHBS FROM LAST STRESS PERIOD

 OPENED freyberg6.rch_recharge_2.txt
 FILE TYPE:OPEN/CLOSE   UNIT 1041   STATUS:OLD                 
 FORMAT:FORMATTED              ACCESS:SEQUENTIAL          
 ACTION:READ                


 REUSING SFRS FROM LAST STRESS PERIOD
 UBDSV1 SAVING     FLOW-JA-FACE ON UNIT   1033 AT TIME STEP      1, STRESS PERIOD      2
 UBDSV06 SAVING              WEL IN MODEL FREYBERG6        PACKAGE FREYBERG6       CONNECTED TO MODEL FREYBERG6        PACKAGE WEL              ON UNIT   1033 AT TIME STEP      1, STRESS PERIOD      2
 UBDSV06 SAVING              GHB IN MODEL FREYBERG6        PACKAGE FREYBERG6       CONNECTED TO MODEL FREYBERG6        PACKAGE GHB              ON UNIT   1033 AT TIME STEP      1, STRESS PERIOD      2
 UBDSV06 SAVING             RCHA IN MODEL FREYBERG6        PACKAGE FREYBERG6       CONNECTED TO MODEL FREYBERG6        PACKAGE RCH              ON UNIT   1033 AT TIME STEP      1, STRESS PERIOD      2
 UBDSV06 SAVING              SFR IN MODEL FREYBERG6        PACKAGE FREYBERG6       CONNECTED TO MODEL FREYBERG6        PACKAGE SFR_1            ON UNIT   1033 AT TIME STEP      1, STRESS PERIOD      2

 WEL PACKAGE (WEL) FLOW RATES   PERIOD      2   STEP        1
 -----------------------------------------------
   NUMBER   CELLID                    RATE      
 -----------------------------------------------
     1      (1,10,17)            -114.42756     
     2      (1,12,14)            -114.42756     
     3      (1,21,15)            -114.42756     
     4      (1,27,11)            -114.42756     
     5      (1,30,7)             -114.42756     
     6      (1,35,13)            -114.42756     
     7      (1,25,5)              0.0000000     
 -----------------------------------------------




 GHB PACKAGE (GHB) FLOW RATES   PERIOD      2   STEP        1
 -----------------------------------------------
   NUMBER   CELLID                    RATE      
 -----------------------------------------------
     1      (1,40,6)             -24.672675     
     2      (1,40,7)             -23.869872     
     3      (1,40,8)             -22.384440     
     4      (1,40,9)             -20.334874     
     5      (1,40,10)            -17.814409     
     6      (1,40,11)            -14.865589     
     7      (1,40,12)            -11.482628     
     8      (1,40,13)            -7.5651504     
     9      (1,40,14)            -3.0899023     
     10     (1,40,15)             2.4110176     
 -----------------------------------------------




 HEAD WILL BE SAVED ON UNIT 1034 AT END OF TIME STEP    1, STRESS PERIOD    2


  SFR_1 BUDGET FOR ENTIRE MODEL AT END OF TIME STEP    1, STRESS PERIOD   2
  ------------------------------------------------------------------------------

     CUMULATIVE SFR_1      L**3       RATES FOR THIS TIME STEP      L**3/T
     ------------------                 ------------------------

           IN:                                      IN:
           ---                                      ---
                 GWF =     8478776.3529                   GWF =        2179.3951
            RAINFALL =           0.0000              RAINFALL =           0.0000
         EVAPORATION =           0.0000           EVAPORATION =           0.0000
              RUNOFF =           0.0000                RUNOFF =           0.0000
          EXT-INFLOW =     4004321.0409            EXT-INFLOW =        1087.0968
         EXT-OUTFLOW =           0.0000           EXT-OUTFLOW =           0.0000
             STORAGE =           0.0000               STORAGE =           0.0000

            TOTAL IN =    12483097.3938              TOTAL IN =        3266.4919

          OUT:                                     OUT:
          ----                                     ----
                 GWF =           0.0000                   GWF =           0.0000
            RAINFALL =           0.0000              RAINFALL =           0.0000
         EVAPORATION =           0.0000           EVAPORATION =           0.0000
              RUNOFF =           0.0000                RUNOFF =           0.0000
          EXT-INFLOW =           0.0000            EXT-INFLOW =           0.0000
         EXT-OUTFLOW =    12483097.3938           EXT-OUTFLOW =        3266.4919
             STORAGE =           0.0000               STORAGE =           0.0000

           TOTAL OUT =    12483097.3938             TOTAL OUT =        3266.4919

            IN - OUT =           0.0000              IN - OUT =       4.5475E-13

 PERCENT DISCREPANCY =           0.00     PERCENT DISCREPANCY =           0.00



  VOLUME BUDGET FOR ENTIRE MODEL AT END OF TIME STEP    1, STRESS PERIOD   2
  ---------------------------------------------------------------------------------------------------

     CUMULATIVE VOLUME      L**3       RATES FOR THIS TIME STEP      L**3/T          PACKAGE NAME    
     ------------------                 ------------------------                     ----------------

           IN:                                      IN:
           ---                                      ---
              STO-SS =       15752.6577                STO-SS =       1.0139E-03     STORAGE                          
              STO-SY =      735033.3826                STO-SY =       8.3323E-02     STORAGE                          
                 WEL =           0.0000                   WEL =           0.0000     WEL                              
                 GHB =       13884.6070                   GHB =           2.4110     GHB                              
                RCHA =    10947191.7616                  RCHA =        3856.6035     RCH                              
                 SFR =           0.0000                   SFR =           0.0000     SFR_1                            

            TOTAL IN =    11711862.4089              TOTAL IN =        3859.0989

          OUT:                                     OUT:
          ----                                     ----
              STO-SS =       11058.1205                STO-SS =           6.6352     STORAGE                          
              STO-SY =     1200503.9962                STO-SY =         662.7463     STORAGE                          
                 WEL =     2097961.5338                   WEL =         686.5654     WEL                              
                 GHB =      459901.0828                   GHB =         146.0795     GHB                              
                RCHA =           0.0000                  RCHA =           0.0000     RCH                              
                 SFR =     7985005.3701                   SFR =        2356.1237     SFR_1                            

           TOTAL OUT =    11754430.1033             TOTAL OUT =        3858.1500

            IN - OUT =      -42567.6945              IN - OUT =           0.9489

 PERCENT DISCREPANCY =          -0.36     PERCENT DISCREPANCY =           0.02




         TIME SUMMARY AT END OF TIME STEP    1 IN STRESS PERIOD    2
                    SECONDS     MINUTES      HOURS       DAYS        YEARS
                    -----------------------------------------------------------
   TIME STEP LENGTH 2.67840E+06  44640.      744.00      31.000     8.48734E-02
 STRESS PERIOD TIME 2.67840E+06  44640.      744.00      31.000     8.48734E-02
         TOTAL TIME 3.18254E+08 5.30424E+06  88404.      3683.5      10.085    


end timestep


start timestep kper="3" kstp="1" mode="normal"


 OUTPUT CONTROL FOR STRESS PERIOD 3 IS REPEATED USING SETTINGS FROM A PREVIOUS STRESS PERIOD.


 STRESS PERIOD 3 IS TRANSIENT


 OPENED freyberg6.wel_stress_period_data_3.txt
 FILE TYPE:OPEN/CLOSE   UNIT 1042   STATUS:OLD                 
 FORMAT:FORMATTED              ACCESS:SEQUENTIAL          
 ACTION:READ                

 ---------------------------------------------------
  WEL NO.    LAYER    ROW     COL     STRESS RATE   
 ---------------------------------------------------
     1         1      10      17    -101.277665     
     2         1      12      14    -101.277665     
     3         1      21      15    -101.277665     
     4         1      27      11    -101.277665     
     5         1      30       7    -101.277665     
     6         1      35      13    -101.277665     
     7         1      25       5     0.00000000     
 ---------------------------------------------------



 REUSING GHBS FROM LAST STRESS PERIOD

 OPENED freyberg6.rch_recharge_3.txt
 FILE TYPE:OPEN/CLOSE   UNIT 1043   STATUS:OLD                 
 FORMAT:FORMATTED              ACCESS:SEQUENTIAL          
 ACTION:READ                


 REUSING SFRS FROM LAST STRESS PERIOD
 UBDSV1 SAVING     FLOW-JA-FACE ON UNIT   1033 AT TIME STEP      1, STRESS PERIOD      3
 UBDSV06 SAVING              WEL IN MODEL FREYBERG6        PACKAGE FREYBERG6       CONNECTED TO MODEL FREYBERG6        PACKAGE WEL              ON UNIT   1033 AT TIME STEP      1, STRESS PERIOD      3
 UBDSV06 SAVING              GHB IN MODEL FREYBERG6        PACKAGE FREYBERG6       CONNECTED TO MODEL FREYBERG6        PACKAGE GHB              ON UNIT   1033 AT TIME STEP      1, STRESS PERIOD      3
 UBDSV06 SAVING             RCHA IN MODEL FREYBERG6        PACKAGE FREYBERG6       CONNECTED TO MODEL FREYBERG6        PACKAGE RCH              ON UNIT   1033 AT TIME STEP      1, STRESS PERIOD      3
 UBDSV06 SAVING              SFR IN MODEL FREYBERG6        PACKAGE FREYBERG6       CONNECTED TO MODEL FREYBERG6        PACKAGE SFR_1            ON UNIT   1033 AT TIME STEP      1, STRESS PERIOD      3

 WEL PACKAGE (WEL) FLOW RATES   PERIOD      3   STEP        1
 -----------------------------------------------
   NUMBER   CELLID                    RATE      
 -----------------------------------------------
     1      (1,10,17)            -101.27767     
     2      (1,12,14)            -101.27767     
     3      (1,21,15)            -101.27767     
     4      (1,27,11)            -101.27767     
     5      (1,30,7)             -101.27767     
     6      (1,35,13)            -101.27767     
     7      (1,25,5)              0.0000000     
 -----------------------------------------------




 GHB PACKAGE (GHB) FLOW RATES   PERIOD      3   STEP        1
 -----------------------------------------------
   NUMBER   CELLID                    RATE      
 -----------------------------------------------
     1      (1,40,6)             -29.036679     
     2      (1,40,7)             -28.208354     
     3      (1,40,8)             -26.676543     
     4      (1,40,9)             -24.559582     
     5      (1,40,10)            -21.947357     
     6      (1,40,11)            -18.872678     
     7      (1,40,12)            -15.316592     
     8      (1,40,13)            -11.169409     
     9      (1,40,14)            -6.1812797     
     10     (1,40,15)            -0.15374377    
 -----------------------------------------------




 HEAD WILL BE SAVED ON UNIT 1034 AT END OF TIME STEP    1, STRESS PERIOD    3


  SFR_1 BUDGET FOR ENTIRE MODEL AT END OF TIME STEP    1, STRESS PERIOD   3
  ------------------------------------------------------------------------------

     CUMULATIVE SFR_1      L**3       RATES FOR THIS TIME STEP      L**3/T
     ------------------                 ------------------------

           IN:                                      IN:
           ---                                      ---
                 GWF =     8557527.6819                   GWF =        2715.5631
            RAINFALL =           0.0000              RAINFALL =           0.0000
         EVAPORATION =           0.0000           EVAPORATION =           0.0000
              RUNOFF =           0.0000                RUNOFF =           0.0000
          EXT-INFLOW =     4035846.8480            EXT-INFLOW =        1087.0968
         EXT-OUTFLOW =           0.0000           EXT-OUTFLOW =           0.0000
             STORAGE =           0.0000               STORAGE =           0.0000

            TOTAL IN =    12593374.5299              TOTAL IN =        3802.6599

          OUT:                                     OUT:
          ----                                     ----
                 GWF =           0.0000                   GWF =           0.0000
            RAINFALL =           0.0000              RAINFALL =           0.0000
         EVAPORATION =           0.0000           EVAPORATION =           0.0000
              RUNOFF =           0.0000                RUNOFF =           0.0000
          EXT-INFLOW =           0.0000            EXT-INFLOW =           0.0000
         EXT-OUTFLOW =    12593374.5299           EXT-OUTFLOW =        3802.6599
             STORAGE =           0.0000               STORAGE =           0.0000

           TOTAL OUT =    12593374.5299             TOTAL OUT =        3802.6599

            IN - OUT =       1.8626E-09              IN - OUT =      -4.5475E-13

 PERCENT DISCREPANCY =           0.00     PERCENT DISCREPANCY =          -0.00



  VOLUME BUDGET FOR ENTIRE MODEL AT END OF TIME STEP    1, STRESS PERIOD   3
  ---------------------------------------------------------------------------------------------------

     CUMULATIVE VOLUME      L**3       RATES FOR THIS TIME STEP      L**3/T          PACKAGE NAME    
     ------------------                 ------------------------                     ----------------

           IN:                                      IN:
           ---                                      ---
              STO-SS =       15752.6577                STO-SS =           0.0000     STORAGE                          
              STO-SY =      735033.3826                STO-SY =           0.0000     STORAGE                          
                 WEL =           0.0000                   WEL =           0.0000     WEL                              
                 GHB =       13884.6070                   GHB =           0.0000     GHB                              
                RCHA =    11101838.4097                  RCHA =        5332.6430     RCH                              
                 SFR =           0.0000                   SFR =           0.0000     SFR_1                            

            TOTAL IN =    11866509.0570              TOTAL IN =        5332.6430

          OUT:                                     OUT:
          ----                                     ----
              STO-SS =       11569.5065                STO-SS =          17.6340     STORAGE                          
              STO-SY =     1252173.9153                STO-SY =        1781.7214     STORAGE                          
                 WEL =     2115583.8476                   WEL =         607.6660     WEL                              
                 GHB =      465182.6271                   GHB =         182.1222     GHB                              
                RCHA =           0.0000                  RCHA =           0.0000     RCH                              
                 SFR =     8064526.7367                   SFR =        2742.1161     SFR_1                            

           TOTAL OUT =    11909036.6332             TOTAL OUT =        5331.2597

            IN - OUT =      -42527.5763              IN - OUT =           1.3834

 PERCENT DISCREPANCY =          -0.36     PERCENT DISCREPANCY =           0.03




         TIME SUMMARY AT END OF TIME STEP    1 IN STRESS PERIOD    3
                    SECONDS     MINUTES      HOURS       DAYS        YEARS
                    -----------------------------------------------------------
   TIME STEP LENGTH 2.50560E+06  41760.      696.00      29.000     7.93977E-02
 STRESS PERIOD TIME 2.50560E+06  41760.      696.00      29.000     7.93977E-02
         TOTAL TIME 3.20760E+08 5.34600E+06  89100.      3712.5      10.164    


end timestep


start timestep kper="4" kstp="1" mode="normal"


 OUTPUT CONTROL FOR STRESS PERIOD 4 IS REPEATED USING SETTINGS FROM A PREVIOUS STRESS PERIOD.


 STRESS PERIOD 4 IS TRANSIENT


 OPENED freyberg6.wel_stress_period_data_4.txt
 FILE TYPE:OPEN/CLOSE   UNIT 1044   STATUS:OLD                 
 FORMAT:FORMATTED              ACCESS:SEQUENTIAL          
 ACTION:READ                

 ---------------------------------------------------
  WEL NO.    LAYER    ROW     COL     STRESS RATE   
 ---------------------------------------------------
     1         1      10      17    -186.359666     
     2         1      12      14    -186.359666     
     3         1      21      15    -186.359666     
     4         1      27      11    -186.359666     
     5         1      30       7    -186.359666     
     6         1      35      13    -186.359666     
     7         1      25       5     0.00000000     
 ---------------------------------------------------



 REUSING GHBS FROM LAST STRESS PERIOD

 OPENED freyberg6.rch_recharge_4.txt
 FILE TYPE:OPEN/CLOSE   UNIT 1045   STATUS:OLD                 
 FORMAT:FORMATTED              ACCESS:SEQUENTIAL          
 ACTION:READ                


 REUSING SFRS FROM LAST STRESS PERIOD
 UBDSV1 SAVING     FLOW-JA-FACE ON UNIT   1033 AT TIME STEP      1, STRESS PERIOD      4
 UBDSV06 SAVING              WEL IN MODEL FREYBERG6        PACKAGE FREYBERG6       CONNECTED TO MODEL FREYBERG6        PACKAGE WEL              ON UNIT   1033 AT TIME STEP      1, STRESS PERIOD      4
 UBDSV06 SAVING              GHB IN MODEL FREYBERG6        PACKAGE FREYBERG6       CONNECTED TO MODEL FREYBERG6        PACKAGE GHB              ON UNIT   1033 AT TIME STEP      1, STRESS PERIOD      4
 UBDSV06 SAVING             RCHA IN MODEL FREYBERG6        PACKAGE FREYBERG6       CONNECTED TO MODEL FREYBERG6        PACKAGE RCH              ON UNIT   1033 AT TIME STEP      1, STRESS PERIOD      4
 UBDSV06 SAVING              SFR IN MODEL FREYBERG6        PACKAGE FREYBERG6       CONNECTED TO MODEL FREYBERG6        PACKAGE SFR_1            ON UNIT   1033 AT TIME STEP      1, STRESS PERIOD      4

 WEL PACKAGE (WEL) FLOW RATES   PERIOD      4   STEP        1
 -----------------------------------------------
   NUMBER   CELLID                    RATE      
 -----------------------------------------------
     1      (1,10,17)            -186.35967     
     2      (1,12,14)            -186.35967     
     3      (1,21,15)            -186.35967     
     4      (1,27,11)            -186.35967     
     5      (1,30,7)             -186.35967     
     6      (1,35,13)            -186.35967     
     7      (1,25,5)              0.0000000     
 -----------------------------------------------




 GHB PACKAGE (GHB) FLOW RATES   PERIOD      4   STEP        1
 -----------------------------------------------
   NUMBER   CELLID                    RATE      
 -----------------------------------------------
     1      (1,40,6)             -32.315162     
     2      (1,40,7)             -31.400614     
     3      (1,40,8)             -29.715229     
     4      (1,40,9)             -27.398006     
     5      (1,40,10)            -24.559195     
     6      (1,40,11)            -21.239317     
     7      (1,40,12)            -17.436477     
     8      (1,40,13)            -13.070661     
     9      (1,40,14)            -7.9372425     
     10     (1,40,15)            -1.5729122     
 -----------------------------------------------




 HEAD WILL BE SAVED ON UNIT 1034 AT END OF TIME STEP    1, STRESS PERIOD    4


  SFR_1 BUDGET FOR ENTIRE MODEL AT END OF TIME STEP    1, STRESS PERIOD   4
  ------------------------------------------------------------------------------

     CUMULATIVE SFR_1      L**3       RATES FOR THIS TIME STEP      L**3/T
     ------------------                 ------------------------

           IN:                                      IN:
           ---                                      ---
                 GWF =     8647856.6401                   GWF =        2913.8374
            RAINFALL =           0.0000              RAINFALL =           0.0000
         EVAPORATION =           0.0000           EVAPORATION =           0.0000
              RUNOFF =           0.0000                RUNOFF =           0.0000
          EXT-INFLOW =     4069546.8486            EXT-INFLOW =        1087.0968
         EXT-OUTFLOW =           0.0000           EXT-OUTFLOW =           0.0000
             STORAGE =           0.0000               STORAGE =           0.0000

            TOTAL IN =    12717403.4887              TOTAL IN =        4000.9342

          OUT:                                     OUT:
          ----                                     ----
                 GWF =           0.0000                   GWF =           0.0000
            RAINFALL =           0.0000              RAINFALL =           0.0000
         EVAPORATION =           0.0000           EVAPORATION =           0.0000
              RUNOFF =           0.0000                RUNOFF =           0.0000
          EXT-INFLOW =           0.0000            EXT-INFLOW =           0.0000
         EXT-OUTFLOW =    12717403.4887           EXT-OUTFLOW =        4000.9342
             STORAGE =           0.0000               STORAGE =           0.0000

           TOTAL OUT =    12717403.4887             TOTAL OUT =        4000.9342

            IN - OUT =       1.8626E-09              IN - OUT =      -9.0949E-13

 PERCENT DISCREPANCY =           0.00     PERCENT DISCREPANCY =          -0.00



  VOLUME BUDGET FOR ENTIRE MODEL AT END OF TIME STEP    1, STRESS PERIOD   4
  ---------------------------------------------------------------------------------------------------

     CUMULATIVE VOLUME      L**3       RATES FOR THIS TIME STEP      L**3/T          PACKAGE NAME    
     ------------------                 ------------------------                     ----------------

           IN:                                      IN:
           ---                                      ---
              STO-SS =       15757.9907                STO-SS =           0.1720     STORAGE                          
              STO-SY =      735477.1154                STO-SY =          14.3140     STORAGE                          
                 WEL =           0.0000                   WEL =           0.0000     WEL                              
                 GHB =       13884.6070                   GHB =           0.0000     GHB                              
                RCHA =    11272591.7506                  RCHA =        5508.1723     RCH                              
                 SFR =           0.0000                   SFR =           0.0000     SFR_1                            

            TOTAL IN =    12037711.4638              TOTAL IN =        5522.6583

          OUT:                                     OUT:
          ----                                     ----
              STO-SS =       11931.0851                STO-SS =          11.6638     STORAGE                          
              STO-SY =     1291222.9269                STO-SY =        1259.6455     STORAGE                          
                 WEL =     2150246.7455                   WEL =        1118.1580     WEL                              
                 GHB =      471588.6164                   GHB =         206.6448     GHB                              
                RCHA =           0.0000                  RCHA =           0.0000     RCH                              
                 SFR =     8155225.0736                   SFR =        2925.7528     SFR_1                            

           TOTAL OUT =    12080214.4476             TOTAL OUT =        5521.8650

            IN - OUT =      -42502.9838              IN - OUT =           0.7933

 PERCENT DISCREPANCY =          -0.35     PERCENT DISCREPANCY =           0.01




         TIME SUMMARY AT END OF TIME STEP    1 IN STRESS PERIOD    4
                    SECONDS     MINUTES      HOURS       DAYS        YEARS
                    -----------------------------------------------------------
   TIME STEP LENGTH 2.67840E+06  44640.      744.00      31.000     8.48734E-02
 STRESS PERIOD TIME 2.67840E+06  44640.      744.00      31.000     8.48734E-02
         TOTAL TIME 3.23438E+08 5.39064E+06  89844.      3743.5      10.249    


end timestep


start timestep kper="5" kstp="1" mode="normal"


 OUTPUT CONTROL FOR STRESS PERIOD 5 IS REPEATED USING SETTINGS FROM A PREVIOUS STRESS PERIOD.


 STRESS PERIOD 5 IS TRANSIENT


 OPENED freyberg6.wel_stress_period_data_5.txt
 FILE TYPE:OPEN/CLOSE   UNIT 1046   STATUS:OLD                 
 FORMAT:FORMATTED              ACCESS:SEQUENTIAL          
 ACTION:READ                

 ---------------------------------------------------
  WEL NO.    LAYER    ROW     COL     STRESS RATE   
 ---------------------------------------------------
     1         1      10      17    -260.452921     
     2         1      12      14    -260.452921     
     3         1      21      15    -260.452921     
     4         1      27      11    -260.452921     
     5         1      30       7    -260.452921     
     6         1      35      13    -260.452921     
     7         1      25       5     0.00000000     
 ---------------------------------------------------



 REUSING GHBS FROM LAST STRESS PERIOD

 OPENED freyberg6.rch_recharge_5.txt
 FILE TYPE:OPEN/CLOSE   UNIT 1047   STATUS:OLD                 
 FORMAT:FORMATTED              ACCESS:SEQUENTIAL          
 ACTION:READ                


 REUSING SFRS FROM LAST STRESS PERIOD
 UBDSV1 SAVING     FLOW-JA-FACE ON UNIT   1033 AT TIME STEP      1, STRESS PERIOD      5
 UBDSV06 SAVING              WEL IN MODEL FREYBERG6        PACKAGE FREYBERG6       CONNECTED TO MODEL FREYBERG6        PACKAGE WEL              ON UNIT   1033 AT TIME STEP      1, STRESS PERIOD      5
 UBDSV06 SAVING              GHB IN MODEL FREYBERG6        PACKAGE FREYBERG6       CONNECTED TO MODEL FREYBERG6        PACKAGE GHB              ON UNIT   1033 AT TIME STEP      1, STRESS PERIOD      5
 UBDSV06 SAVING             RCHA IN MODEL FREYBERG6        PACKAGE FREYBERG6       CONNECTED TO MODEL FREYBERG6        PACKAGE RCH              ON UNIT   1033 AT TIME STEP      1, STRESS PERIOD      5
 UBDSV06 SAVING              SFR IN MODEL FREYBERG6        PACKAGE FREYBERG6       CONNECTED TO MODEL FREYBERG6        PACKAGE SFR_1            ON UNIT   1033 AT TIME STEP      1, STRESS PERIOD      5

 WEL PACKAGE (WEL) FLOW RATES   PERIOD      5   STEP        1
 -----------------------------------------------
   NUMBER   CELLID                    RATE      
 -----------------------------------------------
     1      (1,10,17)            -260.45292     
     2      (1,12,14)            -260.45292     
     3      (1,21,15)            -260.45292     
     4      (1,27,11)            -260.45292     
     5      (1,30,7)             -260.45292     
     6      (1,35,13)            -260.45292     
     7      (1,25,5)              0.0000000     
 -----------------------------------------------




 GHB PACKAGE (GHB) FLOW RATES   PERIOD      5   STEP        1
 -----------------------------------------------
   NUMBER   CELLID                    RATE      
 -----------------------------------------------
     1      (1,40,6)             -37.063248     
     2      (1,40,7)             -36.052081     
     3      (1,40,8)             -34.163508     
     4      (1,40,9)             -31.528934     
     5      (1,40,10)            -28.285938     
     6      (1,40,11)            -24.552995     
     7      (1,40,12)            -20.358791     
     8      (1,40,13)            -15.630176     
     9      (1,40,14)            -10.151029     
     10     (1,40,15)            -3.3876630     
 -----------------------------------------------




 HEAD WILL BE SAVED ON UNIT 1034 AT END OF TIME STEP    1, STRESS PERIOD    5


  SFR_1 BUDGET FOR ENTIRE MODEL AT END OF TIME STEP    1, STRESS PERIOD   5
  ------------------------------------------------------------------------------

     CUMULATIVE SFR_1      L**3       RATES FOR THIS TIME STEP      L**3/T
     ------------------                 ------------------------

           IN:                                      IN:
           ---                                      ---
                 GWF =     8742578.2349                   GWF =        3157.3865
            RAINFALL =           0.0000              RAINFALL =           0.0000
         EVAPORATION =           0.0000           EVAPORATION =           0.0000
              RUNOFF =           0.0000                RUNOFF =           0.0000
          EXT-INFLOW =     4102159.7524            EXT-INFLOW =        1087.0968
         EXT-OUTFLOW =           0.0000           EXT-OUTFLOW =           0.0000
             STORAGE =           0.0000               STORAGE =           0.0000

            TOTAL IN =    12844737.9873              TOTAL IN =        4244.4833

          OUT:                                     OUT:
          ----                                     ----
                 GWF =           0.0000                   GWF =           0.0000
            RAINFALL =           0.0000              RAINFALL =           0.0000
         EVAPORATION =           0.0000           EVAPORATION =           0.0000
              RUNOFF =           0.0000                RUNOFF =           0.0000
          EXT-INFLOW =           0.0000            EXT-INFLOW =           0.0000
         EXT-OUTFLOW =    12844737.9873           EXT-OUTFLOW =        4244.4833
             STORAGE =           0.0000               STORAGE =           0.0000

           TOTAL OUT =    12844737.9873             TOTAL OUT =        4244.4833

            IN - OUT =       1.8626E-09              IN - OUT =       9.0949E-13

 PERCENT DISCREPANCY =           0.00     PERCENT DISCREPANCY =           0.00



  VOLUME BUDGET FOR ENTIRE MODEL AT END OF TIME STEP    1, STRESS PERIOD   5
  ---------------------------------------------------------------------------------------------------

     CUMULATIVE VOLUME      L**3       RATES FOR THIS TIME STEP      L**3/T          PACKAGE NAME    
     ------------------                 ------------------------                     ----------------

           IN:                                      IN:
           ---                                      ---
              STO-SS =       15761.9248                STO-SS =           0.1311     STORAGE                          
              STO-SY =      735805.5391                STO-SY =          10.9475     STORAGE                          
                 WEL =           0.0000                   WEL =           0.0000     WEL                              
                 GHB =       13884.6070                   GHB =           0.0000     GHB                              
                RCHA =    11472264.0826                  RCHA =        6655.7444     RCH                              
                 SFR =           0.0000                   SFR =           0.0000     SFR_1                            

            TOTAL IN =    12237716.1535              TOTAL IN =        6666.8230

          OUT:                                     OUT:
          ----                                     ----
              STO-SS =       12392.0049                STO-SS =          15.3640     STORAGE                          
              STO-SY =     1341418.9552                STO-SY =        1673.2009     STORAGE                          
                 WEL =     2197128.2713                   WEL =        1562.7175     WEL                              
                 GHB =      478823.8473                   GHB =         241.1744     GHB                              
                RCHA =           0.0000                  RCHA =           0.0000     RCH                              
                 SFR =     8250425.6868                   SFR =        3173.3538     SFR_1                            

           TOTAL OUT =    12280188.7656             TOTAL OUT =        6665.8106

            IN - OUT =      -42472.6121              IN - OUT =           1.0124

 PERCENT DISCREPANCY =          -0.35     PERCENT DISCREPANCY =           0.02




         TIME SUMMARY AT END OF TIME STEP    1 IN STRESS PERIOD    5
                    SECONDS     MINUTES      HOURS       DAYS        YEARS
                    -----------------------------------------------------------
   TIME STEP LENGTH 2.59200E+06  43200.      720.00      30.000     8.21355E-02
 STRESS PERIOD TIME 2.59200E+06  43200.      720.00      30.000     8.21355E-02
         TOTAL TIME 3.26030E+08 5.43384E+06  90564.      3773.5      10.331    


end timestep


start timestep kper="6" kstp="1" mode="normal"


 OUTPUT CONTROL FOR STRESS PERIOD 6 IS REPEATED USING SETTINGS FROM A PREVIOUS STRESS PERIOD.


 STRESS PERIOD 6 IS TRANSIENT


 OPENED freyberg6.wel_stress_period_data_6.txt
 FILE TYPE:OPEN/CLOSE   UNIT 1048   STATUS:OLD                 
 FORMAT:FORMATTED              ACCESS:SEQUENTIAL          
 ACTION:READ                

 ---------------------------------------------------
  WEL NO.    LAYER    ROW     COL     STRESS RATE   
 ---------------------------------------------------
     1         1      10      17    -193.762102     
     2         1      12      14    -193.762102     
     3         1      21      15    -193.762102     
     4         1      27      11    -193.762102     
     5         1      30       7    -193.762102     
     6         1      35      13    -193.762102     
     7         1      25       5     0.00000000     
 ---------------------------------------------------



 REUSING GHBS FROM LAST STRESS PERIOD

 OPENED freyberg6.rch_recharge_6.txt
 FILE TYPE:OPEN/CLOSE   UNIT 1049   STATUS:OLD                 
 FORMAT:FORMATTED              ACCESS:SEQUENTIAL          
 ACTION:READ                


 REUSING SFRS FROM LAST STRESS PERIOD
 UBDSV1 SAVING     FLOW-JA-FACE ON UNIT   1033 AT TIME STEP      1, STRESS PERIOD      6
 UBDSV06 SAVING              WEL IN MODEL FREYBERG6        PACKAGE FREYBERG6       CONNECTED TO MODEL FREYBERG6        PACKAGE WEL              ON UNIT   1033 AT TIME STEP      1, STRESS PERIOD      6
 UBDSV06 SAVING              GHB IN MODEL FREYBERG6        PACKAGE FREYBERG6       CONNECTED TO MODEL FREYBERG6        PACKAGE GHB              ON UNIT   1033 AT TIME STEP      1, STRESS PERIOD      6
 UBDSV06 SAVING             RCHA IN MODEL FREYBERG6        PACKAGE FREYBERG6       CONNECTED TO MODEL FREYBERG6        PACKAGE RCH              ON UNIT   1033 AT TIME STEP      1, STRESS PERIOD      6
 UBDSV06 SAVING              SFR IN MODEL FREYBERG6        PACKAGE FREYBERG6       CONNECTED TO MODEL FREYBERG6        PACKAGE SFR_1            ON UNIT   1033 AT TIME STEP      1, STRESS PERIOD      6

 WEL PACKAGE (WEL) FLOW RATES   PERIOD      6   STEP        1
 -----------------------------------------------
   NUMBER   CELLID                    RATE      
 -----------------------------------------------
     1      (1,10,17)            -193.76210     
     2      (1,12,14)            -193.76210     
     3      (1,21,15)            -193.76210     
     4      (1,27,11)            -193.76210     
     5      (1,30,7)             -193.76210     
     6      (1,35,13)            -193.76210     
     7      (1,25,5)              0.0000000     
 -----------------------------------------------




 GHB PACKAGE (GHB) FLOW RATES   PERIOD      6   STEP        1
 -----------------------------------------------
   NUMBER   CELLID                    RATE      
 -----------------------------------------------
     1      (1,40,6)             -36.833587     
     2      (1,40,7)             -35.816048     
     3      (1,40,8)             -33.929325     
     4      (1,40,9)             -31.320642     
     5      (1,40,10)            -28.115639     
     6      (1,40,11)            -24.383627     
     7      (1,40,12)            -20.159476     
     8      (1,40,13)            -15.389085     
     9      (1,40,14)            -9.8864174     
     10     (1,40,15)            -3.1844475     
 -----------------------------------------------




 HEAD WILL BE SAVED ON UNIT 1034 AT END OF TIME STEP    1, STRESS PERIOD    6


  SFR_1 BUDGET FOR ENTIRE MODEL AT END OF TIME STEP    1, STRESS PERIOD   6
  ------------------------------------------------------------------------------

     CUMULATIVE SFR_1      L**3       RATES FOR THIS TIME STEP      L**3/T
     ------------------                 ------------------------

           IN:                                      IN:
           ---                                      ---
                 GWF =     8842635.8568                   GWF =        3227.6652
            RAINFALL =           0.0000              RAINFALL =           0.0000
         EVAPORATION =           0.0000           EVAPORATION =           0.0000
              RUNOFF =           0.0000                RUNOFF =           0.0000
          EXT-INFLOW =     4135859.7530            EXT-INFLOW =        1087.0968
         EXT-OUTFLOW =           0.0000           EXT-OUTFLOW =           0.0000
             STORAGE =           0.0000               STORAGE =           0.0000

            TOTAL IN =    12978495.6099              TOTAL IN =        4314.7620

          OUT:                                     OUT:
          ----                                     ----
                 GWF =           0.0000                   GWF =           0.0000
            RAINFALL =           0.0000              RAINFALL =           0.0000
         EVAPORATION =           0.0000           EVAPORATION =           0.0000
              RUNOFF =           0.0000                RUNOFF =           0.0000
          EXT-INFLOW =           0.0000            EXT-INFLOW =           0.0000
         EXT-OUTFLOW =    12978495.6099           EXT-OUTFLOW =        4314.7620
             STORAGE =           0.0000               STORAGE =           0.0000

           TOTAL OUT =    12978495.6099             TOTAL OUT =        4314.7620

            IN - OUT =       1.8626E-09              IN - OUT =           0.0000

 PERCENT DISCREPANCY =           0.00     PERCENT DISCREPANCY =           0.00



  VOLUME BUDGET FOR ENTIRE MODEL AT END OF TIME STEP    1, STRESS PERIOD   6
  ---------------------------------------------------------------------------------------------------

     CUMULATIVE VOLUME      L**3       RATES FOR THIS TIME STEP      L**3/T          PACKAGE NAME    
     ------------------                 ------------------------                     ----------------

           IN:                                      IN:
           ---                                      ---
              STO-SS =       15762.4723                STO-SS =       1.7661E-02     STORAGE                          
              STO-SY =      735820.1727                STO-SY =           0.4721     STORAGE                          
                 WEL =           0.0000                   WEL =           0.0000     WEL                              
                 GHB =       13884.6070                   GHB =           0.0000     GHB                              
                RCHA =    11640363.8828                  RCHA =        5422.5742     RCH                              
                 SFR =           0.0000                   SFR =           0.0000     SFR_1                            

            TOTAL IN =    12405831.1349              TOTAL IN =        5423.0639

          OUT:                                     OUT:
          ----                                     ----
              STO-SS =       12606.7517                STO-SS =           6.9273     STORAGE                          
              STO-SY =     1365655.7342                STO-SY =         781.8316     STORAGE                          
                 WEL =     2233168.0222                   WEL =        1162.5726     WEL                              
                 GHB =      486233.4144                   GHB =         239.0183     GHB                              
                RCHA =           0.0000                  RCHA =           0.0000     RCH                              
                 SFR =     8350629.9969                   SFR =        3232.3971     SFR_1                            

           TOTAL OUT =    12448293.9193             TOTAL OUT =        5422.7469

            IN - OUT =      -42462.7844              IN - OUT =           0.3170

 PERCENT DISCREPANCY =          -0.34     PERCENT DISCREPANCY =           0.01




         TIME SUMMARY AT END OF TIME STEP    1 IN STRESS PERIOD    6
                    SECONDS     MINUTES      HOURS       DAYS        YEARS
                    -----------------------------------------------------------
   TIME STEP LENGTH 2.67840E+06  44640.      744.00      31.000     8.48734E-02
 STRESS PERIOD TIME 2.67840E+06  44640.      744.00      31.000     8.48734E-02
         TOTAL TIME 3.28709E+08 5.47848E+06  91308.      3804.5      10.416    


end timestep


start timestep kper="7" kstp="1" mode="normal"


 OUTPUT CONTROL FOR STRESS PERIOD 7 IS REPEATED USING SETTINGS FROM A PREVIOUS STRESS PERIOD.


 STRESS PERIOD 7 IS TRANSIENT


 OPENED freyberg6.wel_stress_period_data_7.txt
[...]
             STORAGE =           0.0000               STORAGE =           0.0000

           TOTAL OUT =    14068930.7036             TOTAL OUT =        1214.4118

            IN - OUT =       1.8626E-09              IN - OUT =           0.0000

 PERCENT DISCREPANCY =           0.00     PERCENT DISCREPANCY =           0.00



  VOLUME BUDGET FOR ENTIRE MODEL AT END OF TIME STEP    1, STRESS PERIOD  23
  ---------------------------------------------------------------------------------------------------

     CUMULATIVE VOLUME      L**3       RATES FOR THIS TIME STEP      L**3/T          PACKAGE NAME    
     ------------------                 ------------------------                     ----------------

           IN:                                      IN:
           ---                                      ---
              STO-SS =       27833.2463                STO-SS =          56.7585     STORAGE                          
              STO-SY =     1965521.2522                STO-SY =        5932.1509     STORAGE                          
                 WEL =           0.0000                   WEL =           0.0000     WEL                              
                 GHB =       37047.7856                   GHB =         215.5874     GHB                              
                RCHA =    13106327.1468                  RCHA =         313.8427     RCH                              
                 SFR =      182360.9661                   SFR =        1228.3209     SFR_1                            

            TOTAL IN =    15319090.3969              TOTAL IN =        7746.6604

          OUT:                                     OUT:
          ----                                     ----
              STO-SS =       15075.1838                STO-SS =           0.0000     STORAGE                          
              STO-SY =     1613081.9885                STO-SY =           0.0000     STORAGE                          
                 WEL =     4346156.9101                   WEL =        7619.9489     WEL                              
                 GHB =      513795.3103                   GHB =           0.0000     GHB                              
                RCHA =           0.0000                  RCHA =           0.0000     RCH                              
                 SFR =     8873773.3009                   SFR =         127.2490     SFR_1                            

           TOTAL OUT =    15361882.6935             TOTAL OUT =        7747.1979

            IN - OUT =      -42792.2966              IN - OUT =          -0.5375

 PERCENT DISCREPANCY =          -0.28     PERCENT DISCREPANCY =          -0.01




         TIME SUMMARY AT END OF TIME STEP    1 IN STRESS PERIOD   23
                    SECONDS     MINUTES      HOURS       DAYS        YEARS
                    -----------------------------------------------------------
   TIME STEP LENGTH 2.67840E+06  44640.      744.00      31.000     8.48734E-02
 STRESS PERIOD TIME 2.67840E+06  44640.      744.00      31.000     8.48734E-02
         TOTAL TIME 3.73464E+08 6.22440E+06 1.03740E+05  4322.5      11.834    


end timestep


start timestep kper="24" kstp="1" mode="normal"


 OUTPUT CONTROL FOR STRESS PERIOD 24 IS REPEATED USING SETTINGS FROM A PREVIOUS STRESS PERIOD.


 STRESS PERIOD 24 IS TRANSIENT


 OPENED freyberg6.wel_stress_period_data_24.txt
 FILE TYPE:OPEN/CLOSE   UNIT 1084   STATUS:OLD                 
 FORMAT:FORMATTED              ACCESS:SEQUENTIAL          
 ACTION:READ                

 ---------------------------------------------------
  WEL NO.    LAYER    ROW     COL     STRESS RATE   
 ---------------------------------------------------
     1         1      10      17    -1004.91577     
     2         1      12      14    -1004.91577     
     3         1      21      15    -1004.91577     
     4         1      27      11    -1004.91577     
     5         1      30       7    -1004.91577     
     6         1      35      13    -1004.91577     
     7         1      25       5    -1842.34557     
 ---------------------------------------------------



 REUSING GHBS FROM LAST STRESS PERIOD

 OPENED freyberg6.rch_recharge_24.txt
 FILE TYPE:OPEN/CLOSE   UNIT 1085   STATUS:OLD                 
 FORMAT:FORMATTED              ACCESS:SEQUENTIAL          
 ACTION:READ                


 REUSING SFRS FROM LAST STRESS PERIOD
 UBDSV1 SAVING     FLOW-JA-FACE ON UNIT   1033 AT TIME STEP      1, STRESS PERIOD     24
 UBDSV06 SAVING              WEL IN MODEL FREYBERG6        PACKAGE FREYBERG6       CONNECTED TO MODEL FREYBERG6        PACKAGE WEL              ON UNIT   1033 AT TIME STEP      1, STRESS PERIOD     24
 UBDSV06 SAVING              GHB IN MODEL FREYBERG6        PACKAGE FREYBERG6       CONNECTED TO MODEL FREYBERG6        PACKAGE GHB              ON UNIT   1033 AT TIME STEP      1, STRESS PERIOD     24
 UBDSV06 SAVING             RCHA IN MODEL FREYBERG6        PACKAGE FREYBERG6       CONNECTED TO MODEL FREYBERG6        PACKAGE RCH              ON UNIT   1033 AT TIME STEP      1, STRESS PERIOD     24
 UBDSV06 SAVING              SFR IN MODEL FREYBERG6        PACKAGE FREYBERG6       CONNECTED TO MODEL FREYBERG6        PACKAGE SFR_1            ON UNIT   1033 AT TIME STEP      1, STRESS PERIOD     24

 WEL PACKAGE (WEL) FLOW RATES   PERIOD     24   STEP        1
 -----------------------------------------------
   NUMBER   CELLID                    RATE      
 -----------------------------------------------
     1      (1,10,17)            -1004.9158     
     2      (1,12,14)            -1004.9158     
     3      (1,21,15)            -1004.9158     
     4      (1,27,11)            -1004.9158     
     5      (1,30,7)             -1004.9158     
     6      (1,35,13)            -1004.9158     
     7      (1,25,5)             -1842.3456     
 -----------------------------------------------




 GHB PACKAGE (GHB) FLOW RATES   PERIOD     24   STEP        1
 -----------------------------------------------
   NUMBER   CELLID                    RATE      
 -----------------------------------------------
     1      (1,40,6)              21.426161     
     2      (1,40,7)              22.097187     
     3      (1,40,8)              23.412317     
     4      (1,40,9)              25.288917     
     5      (1,40,10)             27.570036     
     6      (1,40,11)             29.947165     
     7      (1,40,12)             32.028888     
     8      (1,40,13)             33.486281     
     9      (1,40,14)             34.354488     
     10     (1,40,15)             35.448929     
 -----------------------------------------------




 HEAD WILL BE SAVED ON UNIT 1034 AT END OF TIME STEP    1, STRESS PERIOD   24


  SFR_1 BUDGET FOR ENTIRE MODEL AT END OF TIME STEP    1, STRESS PERIOD  24
  ------------------------------------------------------------------------------

     CUMULATIVE SFR_1      L**3       RATES FOR THIS TIME STEP      L**3/T
     ------------------                 ------------------------

           IN:                                      IN:
           ---                                      ---
                 GWF =     9372659.8429                   GWF =          90.1677
            RAINFALL =           0.0000              RAINFALL =           0.0000
         EVAPORATION =           0.0000           EVAPORATION =           0.0000
              RUNOFF =           0.0000                RUNOFF =           0.0000
          EXT-INFLOW =     4731588.7962            EXT-INFLOW =        1087.0968
         EXT-OUTFLOW =           0.0000           EXT-OUTFLOW =           0.0000
             STORAGE =           0.0000               STORAGE =           0.0000

            TOTAL IN =    14104248.6391              TOTAL IN =        1177.2645

          OUT:                                     OUT:
          ----                                     ----
                 GWF =      214330.9544                   GWF =        1177.2645
            RAINFALL =           0.0000              RAINFALL =           0.0000
         EVAPORATION =           0.0000           EVAPORATION =           0.0000
              RUNOFF =           0.0000                RUNOFF =           0.0000
          EXT-INFLOW =           0.0000            EXT-INFLOW =           0.0000
         EXT-OUTFLOW =    13889917.6847           EXT-OUTFLOW =           0.0000
             STORAGE =           0.0000               STORAGE =           0.0000

           TOTAL OUT =    14104248.6391             TOTAL OUT =        1177.2645

            IN - OUT =       3.7253E-09              IN - OUT =       4.5475E-13

 PERCENT DISCREPANCY =           0.00     PERCENT DISCREPANCY =           0.00



  VOLUME BUDGET FOR ENTIRE MODEL AT END OF TIME STEP    1, STRESS PERIOD  24
  ---------------------------------------------------------------------------------------------------

     CUMULATIVE VOLUME      L**3       RATES FOR THIS TIME STEP      L**3/T          PACKAGE NAME    
     ------------------                 ------------------------                     ----------------

           IN:                                      IN:
           ---                                      ---
              STO-SS =       29368.2457                STO-SS =          51.1666     STORAGE                          
              STO-SY =     2126779.2154                STO-SY =        5375.2654     STORAGE                          
                 WEL =           0.0000                   WEL =           0.0000     WEL                              
                 GHB =       45599.5967                   GHB =         285.0604     GHB                              
                RCHA =    13138126.3752                  RCHA =        1059.9743     RCH                              
                 SFR =      218068.2519                   SFR =        1190.2429     SFR_1                            

            TOTAL IN =    15557941.6848              TOTAL IN =        7961.7096

          OUT:                                     OUT:
          ----                                     ----
              STO-SS =       15075.1838                STO-SS =           0.0000     STORAGE                          
              STO-SY =     1613081.9885                STO-SY =           0.0000     STORAGE                          
                 WEL =     4582312.1151                   WEL =        7871.8402     WEL                              
                 GHB =      513795.3103                   GHB =           0.0000     GHB                              
                RCHA =           0.0000                  RCHA =           0.0000     RCH                              
                 SFR =     8876476.6453                   SFR =          90.1115     SFR_1                            

           TOTAL OUT =    15600741.2430             TOTAL OUT =        7961.9516

            IN - OUT =      -42799.5581              IN - OUT =          -0.2421

 PERCENT DISCREPANCY =          -0.27     PERCENT DISCREPANCY =          -0.00




         TIME SUMMARY AT END OF TIME STEP    1 IN STRESS PERIOD   24
                    SECONDS     MINUTES      HOURS       DAYS        YEARS
                    -----------------------------------------------------------
   TIME STEP LENGTH 2.59200E+06  43200.      720.00      30.000     8.21355E-02
 STRESS PERIOD TIME 2.59200E+06  43200.      720.00      30.000     8.21355E-02
         TOTAL TIME 3.76056E+08 6.26760E+06 1.04460E+05  4352.5      11.916    


end timestep


start timestep kper="25" kstp="1" mode="normal"


 OUTPUT CONTROL FOR STRESS PERIOD 25 IS REPEATED USING SETTINGS FROM A PREVIOUS STRESS PERIOD.


 STRESS PERIOD 25 IS TRANSIENT


 OPENED freyberg6.wel_stress_period_data_25.txt
 FILE TYPE:OPEN/CLOSE   UNIT 1086   STATUS:OLD                 
 FORMAT:FORMATTED              ACCESS:SEQUENTIAL          
 ACTION:READ                

 ---------------------------------------------------
  WEL NO.    LAYER    ROW     COL     STRESS RATE   
 ---------------------------------------------------
     1         1      10      17    -1200.00000     
     2         1      12      14    -1200.00000     
     3         1      21      15    -1200.00000     
     4         1      27      11    -1200.00000     
     5         1      30       7    -1200.00000     
     6         1      35      13    -1200.00000     
     7         1      25       5    -2200.00000     
 ---------------------------------------------------



 REUSING GHBS FROM LAST STRESS PERIOD

 OPENED freyberg6.rch_recharge_25.txt
 FILE TYPE:OPEN/CLOSE   UNIT 1087   STATUS:OLD                 
 FORMAT:FORMATTED              ACCESS:SEQUENTIAL          
 ACTION:READ                


 REUSING SFRS FROM LAST STRESS PERIOD
 UBDSV1 SAVING     FLOW-JA-FACE ON UNIT   1033 AT TIME STEP      1, STRESS PERIOD     25
 UBDSV06 SAVING              WEL IN MODEL FREYBERG6        PACKAGE FREYBERG6       CONNECTED TO MODEL FREYBERG6        PACKAGE WEL              ON UNIT   1033 AT TIME STEP      1, STRESS PERIOD     25
 UBDSV06 SAVING              GHB IN MODEL FREYBERG6        PACKAGE FREYBERG6       CONNECTED TO MODEL FREYBERG6        PACKAGE GHB              ON UNIT   1033 AT TIME STEP      1, STRESS PERIOD     25
 UBDSV06 SAVING             RCHA IN MODEL FREYBERG6        PACKAGE FREYBERG6       CONNECTED TO MODEL FREYBERG6        PACKAGE RCH              ON UNIT   1033 AT TIME STEP      1, STRESS PERIOD     25
 UBDSV06 SAVING              SFR IN MODEL FREYBERG6        PACKAGE FREYBERG6       CONNECTED TO MODEL FREYBERG6        PACKAGE SFR_1            ON UNIT   1033 AT TIME STEP      1, STRESS PERIOD     25

 WEL PACKAGE (WEL) FLOW RATES   PERIOD     25   STEP        1
 -----------------------------------------------
   NUMBER   CELLID                    RATE      
 -----------------------------------------------
     1      (1,10,17)            -1200.0000     
     2      (1,12,14)            -1200.0000     
     3      (1,21,15)            -1200.0000     
     4      (1,27,11)            -1200.0000     
     5      (1,30,7)             -1200.0000     
     6      (1,35,13)            -1200.0000     
     7      (1,25,5)             -2200.0000     
 -----------------------------------------------




 GHB PACKAGE (GHB) FLOW RATES   PERIOD     25   STEP        1
 -----------------------------------------------
   NUMBER   CELLID                    RATE      
 -----------------------------------------------
     1      (1,40,6)              26.036382     
     2      (1,40,7)              26.758194     
     3      (1,40,8)              28.190781     
     4      (1,40,9)              30.261723     
     5      (1,40,10)             32.811151     
     6      (1,40,11)             35.497510     
     7      (1,40,12)             37.878314     
     8      (1,40,13)             39.579118     
     9      (1,40,14)             40.646628     
     10     (1,40,15)             42.036621     
 -----------------------------------------------




 HEAD WILL BE SAVED ON UNIT 1034 AT END OF TIME STEP    1, STRESS PERIOD   25


  SFR_1 BUDGET FOR ENTIRE MODEL AT END OF TIME STEP    1, STRESS PERIOD  25
  ------------------------------------------------------------------------------

     CUMULATIVE SFR_1      L**3       RATES FOR THIS TIME STEP      L**3/T
     ------------------                 ------------------------

           IN:                                      IN:
           ---                                      ---
                 GWF =     9375628.6148                   GWF =          95.7668
            RAINFALL =           0.0000              RAINFALL =           0.0000
         EVAPORATION =           0.0000           EVAPORATION =           0.0000
              RUNOFF =           0.0000                RUNOFF =           0.0000
          EXT-INFLOW =     4765288.7968            EXT-INFLOW =        1087.0968
         EXT-OUTFLOW =           0.0000           EXT-OUTFLOW =           0.0000
             STORAGE =           0.0000               STORAGE =           0.0000

            TOTAL IN =    14140917.4116              TOTAL IN =        1182.8636

          OUT:                                     OUT:
          ----                                     ----
                 GWF =      250999.7269                   GWF =        1182.8636
            RAINFALL =           0.0000              RAINFALL =           0.0000
         EVAPORATION =           0.0000           EVAPORATION =           0.0000
              RUNOFF =           0.0000                RUNOFF =           0.0000
          EXT-INFLOW =           0.0000            EXT-INFLOW =           0.0000
         EXT-OUTFLOW =    13889917.6847           EXT-OUTFLOW =           0.0000
             STORAGE =           0.0000               STORAGE =           0.0000

           TOTAL OUT =    14140917.4116             TOTAL OUT =        1182.8636

            IN - OUT =       3.7253E-09              IN - OUT =       2.2737E-13

 PERCENT DISCREPANCY =           0.00     PERCENT DISCREPANCY =           0.00



  VOLUME BUDGET FOR ENTIRE MODEL AT END OF TIME STEP    1, STRESS PERIOD  25
  ---------------------------------------------------------------------------------------------------

     CUMULATIVE VOLUME      L**3       RATES FOR THIS TIME STEP      L**3/T          PACKAGE NAME    
     ------------------                 ------------------------                     ----------------

           IN:                                      IN:
           ---                                      ---
              STO-SS =       30879.2779                STO-SS =          48.7430     STORAGE                          
              STO-SY =     2284512.1736                STO-SY =        5088.1599     STORAGE                          
                 WEL =           0.0000                   WEL =           0.0000     WEL                              
                 GHB =       56130.1857                   GHB =         339.6964     GHB                              
                RCHA =    13225865.1606                  RCHA =        2830.2834     RCH                              
                 SFR =      255113.2119                   SFR =        1194.9987     SFR_1                            

            TOTAL IN =    15852500.0098              TOTAL IN =        9501.8814

          OUT:                                     OUT:
          ----                                     ----
              STO-SS =       15076.2007                STO-SS =       3.2804E-02     STORAGE                          
              STO-SY =     1613285.1771                STO-SY =           6.5545     STORAGE                          
                 WEL =     4873712.1151                   WEL =        9400.0000     WEL                              
                 GHB =      513795.3103                   GHB =           0.0000     GHB                              
                RCHA =           0.0000                  RCHA =           0.0000     RCH                              
                 SFR =     8879439.9562                   SFR =          95.5907     SFR_1                            

           TOTAL OUT =    15895308.7594             TOTAL OUT =        9502.1780

            IN - OUT =      -42808.7497              IN - OUT =          -0.2965

 PERCENT DISCREPANCY =          -0.27     PERCENT DISCREPANCY =          -0.00




         TIME SUMMARY AT END OF TIME STEP    1 IN STRESS PERIOD   25
                    SECONDS     MINUTES      HOURS       DAYS        YEARS
                    -----------------------------------------------------------
   TIME STEP LENGTH 2.67840E+06  44640.      744.00      31.000     8.48734E-02
 STRESS PERIOD TIME 2.67840E+06  44640.      744.00      31.000     8.48734E-02
         TOTAL TIME 3.78734E+08 6.31224E+06 1.05204E+05  4383.5      12.001    


end timestep

