                                   MODFLOW 6
                U.S. GEOLOGICAL SURVEY MODULAR HYDROLOGIC MODEL
                          GROUNDWATER FLOW MODEL (GWF)
                            VERSION 6.5.0 05/23/2024

   MODFLOW 6 compiled Jun 21 2024 02:57:23 with Intel(R) Fortran Intel(R) 64
   Compiler Classic for applications running on Intel(R) 64, Version 2021.7.0
                             Build 20220726_000000

This software has been approved for release by the U.S. Geological 
Survey (USGS). Although the software has been subjected to rigorous 
review, the USGS reserves the right to update the software as needed 
pursuant to further analysis and review. No warranty, expressed or 
implied, is made by the USGS or the U.S. Government as to the 
functionality of the software and related material nor shall the 
fact of release constitute any such warranty. Furthermore, the 
software is released on condition that neither the USGS nor the U.S. 
Government shall be held liable for any damages resulting from its 
authorized or unauthorized use. Also refer to the USGS Water 
Resources Software User Rights Notice for complete use, copyright, 
and distribution information.


As a work of the United States Government, this USGS product is 
in the public domain within the United States. You can copy, 
modify, distribute, and perform the work, even for commercial 
purposes, all without asking permission. Additionally, USGS 
waives copyright and related rights in the work worldwide 
through CC0 1.0 Universal Public Domain Dedication 
(https://creativecommons.org/publicdomain/zero/1.0/).

The following GNU Lesser General Public License (LGPL) libraries
are used in this USGS product:

    SPARSKIT version 2.0
      ilut, luson, and qsplit 
      (https://www-users.cse.umn.edu/~saad/software/SPARSKIT/)

    RCM - Reverse Cuthill McKee Ordering
      (https://people.math.sc.edu/Burkardt/f_src/rcm/rcm.html)

    BLAS - Basic Linear Algebra Subprograms Level 1
      (https://people.math.sc.edu/Burkardt/f_src/blas1_d/blas1_d.html)

    SPARSEKIT - Sparse Matrix Utility Package
      amux, dperm, dvperm, rperm, and cperm
      (https://people.sc.fsu.edu/~jburkardt/f77_src/sparsekit/sparsekit.html)

The following BSD-3 License libraries are used in this USGS product:

    Modern Fortran DAG Library
      Copyright (c) 2018, Jacob Williams
      All rights reserved.
      (https://github.com/jacobwilliams/daglib)

MODFLOW 6 compiler options: /O2 /heap-arrays:0 /fpe:0 /traceback /nologo /fpp
/c /module:win64\mod_mf6\ /object:win64\obj_mf6\

System command used to initiate simulation:
C:\Users\gross.DESKTOP-AIRQM2M\anaconda3\envs\gmdsitut\Scripts\mf6.exe

MODFLOW was compiled using uniform precision.

Real Variables
  KIND: 8
  TINY (smallest non-zero value):    2.225074-308
  HUGE (largest value):    1.797693+308
  PRECISION: 15
  SIZE IN BITS: 64

Integer Variables
  KIND: 4
  HUGE (largest value): 2147483647
  SIZE IN BITS: 32

Long Integer Variables
  KIND: 8
  HUGE (largest value): 9223372036854775807
  SIZE IN BITS: 64

Logical Variables
  KIND: 4
  SIZE IN BITS: 32
 
 NAMEFILE OPTIONS:
    FLOWS WILL BE SAVED TO BUDGET FILE SPECIFIED IN OUTPUT CONTROL
 END NAMEFILE OPTIONS:

 DIS -- STRUCTURED GRID DISCRETIZATION PACKAGE, VERSION 2 : 3/27/2014 - INPUT READ FROM MEMPATH: __INPUT__/A01_PLEASANT/DIS                        


 NPF -- NODE PROPERTY FLOW PACKAGE, VERSION 1, 3/30/2015 INPUT READ FROM MEMPATH: __INPUT__/A01_PLEASANT/NPF                        


 IC -- Initial Conditions Package, Version 8, 3/28/2015 input read from mempath: __INPUT__/A01_PLEASANT/IC                         


 Setting Discretization Options
 End Setting Discretization Options

 Setting Discretization Dimensions
    NLAY = 3
    NROW = 60
    NCOL = 70
 End Setting Discretization Dimensions

 Setting Discretization Griddata
    DELR set from input file
    DELC set from input file
    TOP set from input file
    BOTM set from input file
    IDOMAIN set from input file
 End Setting Discretization Griddata

 Setting NPF Options
 End Setting NPF Options

 Setting NPF Griddata
    ICELLTYPE set from input file
    K set from input file
    K33 set from input file
    K22 not provided.  Setting K22 = K.
 End Setting NPF Griddata


 RCH   -- RCH PACKAGE, VERSION 8, 2/22/2014 INPUT READ FROM MEMPATH: __INPUT__/A01_PLEASANT/RCHA_0                     

 PROCESSING RCH BASE OPTIONS
 END OF RCH BASE OPTIONS

 PROCESSING RCHA OPTIONS
    RECHARGE INPUT WILL BE READ AS ARRAY(S).
 END OF RCHA OPTIONS

 CHD   -- CHD PACKAGE, VERSION 8, 2/22/2014 INPUT READ FROM MEMPATH: __INPUT__/A01_PLEASANT/CHD_0                      

 PROCESSING CHD BASE OPTIONS
 END OF CHD BASE OPTIONS

 PROCESSING CHD BASE DIMENSIONS
    MAXBOUND =     572
 END OF CHD BASE DIMENSIONS

 LAK   -- LAK PACKAGE, VERSION 8, 2/22/2014 INPUT READ FROM UNIT 1024
 # File generated by Flopy version 3.8.2 on 01/29/2025 at 06:16:28.

 PROCESSING LAK OPTIONS
    LAK BOUNDARIES HAVE NAMES IN LAST COLUMN.
    LAKE SURFDEP VALUE (  0.1000000    ) SPECIFIED.
 END OF LAK OPTIONS

 PROCESSING LAK DIMENSIONS
    NLAKES =       1
 END OF LAK DIMENSIONS

 PROCESSING LAK PACKAGEDATA
 END OF LAK PACKAGEDATA


    MAXBOUND =     345

 OPENED ../data/lake_cn.dat
 FILE TYPE:OPEN/CLOSE   UNIT 1027   STATUS:OLD                 
 FORMAT:FORMATTED              ACCESS:SEQUENTIAL          
 ACTION:READ                


 PROCESSING LAK LAKE_CONNECTIONS
 #lakeno iconn k i j claktype bedleak belev telev connlen connwidth
 END OF LAK CONNECTIONDATA
    STRT set from input file
    BINARY GRID INFORMATION WILL BE WRITTEN TO:
      UNIT NUMBER: 1029
      FILE NAME: A01_pleasant.dis.grb

 OPENED A01_pleasant.dis.grb
 FILE TYPE:DATA(BINARY)   UNIT 1029   STATUS:REPLACE             
 FORMAT:UNFORMATTED            ACCESS:STREAM              
 ACTION:READWRITE           

      THE LAST TIME STEP WILL BE PRINTED
      THE LAST TIME STEP WILL BE PRINTED
 # File generated by Flopy version 3.8.2 on 01/29/2025 at 06:16:28.

 PROCESSING OC OPTIONS

    BUDGET INFORMATION WILL BE WRITTEN TO:
      UNIT NUMBER: 1030
      FILE NAME: A01_pleasant.cbc

 OPENED A01_pleasant.cbc
 FILE TYPE:DATA(BINARY)   UNIT 1030   STATUS:REPLACE             
 FORMAT:UNFORMATTED            ACCESS:STREAM              
 ACTION:READWRITE           

    HEAD INFORMATION WILL BE WRITTEN TO:
      UNIT NUMBER: 1031
      FILE NAME: A01_pleasant.hds

 OPENED A01_pleasant.hds
 FILE TYPE:DATA(BINARY)   UNIT 1031   STATUS:REPLACE             
 FORMAT:UNFORMATTED            ACCESS:STREAM              
 ACTION:READWRITE           

 END OF OC OPTIONS

start timestep kper="1" kstp="1" mode="normal"


 BEGIN READING OUTPUT CONTROL FOR STRESS PERIOD 1
      ALL TIME STEPS WILL BE SAVED
      ALL TIME STEPS WILL BE SAVED

 END READING OUTPUT CONTROL FOR STRESS PERIOD 1

 CELL CONVERSIONS FOR ITER.=2  STEP=1  PERIOD=1   (NODE or LRC)
     DRY           (1,11,28) DRY           (1,11,29) DRY           (1,12,27) DRY           (1,12,28) DRY           (1,12,29)
     DRY           (1,12,30) DRY           (1,12,31) DRY           (1,12,32) DRY           (1,12,33) DRY           (1,12,34)
     DRY           (1,13,25) DRY           (1,13,26) DRY           (1,13,27) DRY           (1,13,28) DRY           (1,13,29)
     DRY           (1,13,30) DRY           (1,13,31) DRY           (1,13,32) DRY           (1,13,33) DRY           (1,13,34)
     DRY           (1,14,26) DRY           (1,14,27) DRY           (1,14,28) DRY           (1,14,29) DRY           (1,14,30)
     DRY           (1,14,31) DRY           (1,14,32) DRY           (1,14,33) DRY           (1,14,34) DRY           (1,15,27)
     DRY           (1,15,28) DRY           (1,15,29) DRY           (1,15,30) DRY           (1,15,31) DRY           (1,15,32)
     DRY           (1,15,33) DRY           (1,16,28) DRY           (1,16,29) DRY           (1,16,30) DRY           (1,16,31)
     DRY           (1,16,32) DRY           (1,16,33) DRY           (1,48,53) DRY           (1,49,54) DRY           (1,49,55)
     DRY           (1,49,56) DRY           (1,50,54) DRY           (1,50,55) DRY           (1,50,56) DRY           (1,50,57)
     DRY           (1,50,58) DRY           (1,50,59) DRY           (1,50,60) DRY           (1,51,54) DRY           (1,51,55)
     DRY           (1,51,56) DRY           (1,51,57) DRY           (1,51,58) DRY           (1,51,59) DRY           (1,51,60)
     DRY           (1,51,61) DRY           (1,51,62) DRY           (1,52,54) DRY           (1,52,55) DRY           (1,52,56)
     DRY           (1,52,57) DRY           (1,52,58) DRY           (1,52,59) DRY           (1,52,60) DRY           (1,52,61)
     DRY           (1,52,62) DRY           (1,52,63) DRY           (1,52,64) DRY           (1,52,65) DRY           (1,53,54)
     DRY           (1,53,55) DRY           (1,53,56) DRY           (1,53,57) DRY           (1,53,58) DRY           (1,53,59)
     DRY           (1,53,60) DRY           (1,53,61) DRY           (1,53,62) DRY           (1,53,63) DRY           (1,53,64)
     DRY           (1,53,65) DRY           (1,53,66) DRY           (1,53,67) DRY           (1,53,68) DRY           (1,54,55)
     DRY           (1,54,56) DRY           (1,54,57) DRY           (1,54,58) DRY           (1,54,59) DRY           (1,54,60)
     DRY           (1,54,61) DRY           (1,54,62) DRY           (1,54,63) DRY           (1,54,64) DRY           (1,54,65)
     DRY           (1,54,66) DRY           (1,54,67) DRY           (1,54,68) DRY           (1,54,69) DRY           (1,55,57)
     DRY           (1,55,58) DRY           (1,55,59) DRY           (1,55,60) DRY           (1,55,61) DRY           (1,55,62)
     DRY           (1,55,63) DRY           (1,55,64) DRY           (1,55,65) DRY           (1,55,66) DRY           (1,55,67)
     DRY           (1,55,68) DRY           (1,55,69) DRY           (1,56,58) DRY           (1,56,59) DRY           (1,56,60)
     DRY           (1,56,61) DRY           (1,56,62) DRY           (1,56,63) DRY           (1,56,64) DRY           (1,56,65)
     DRY           (1,56,66) DRY           (1,56,67) DRY           (1,56,68) DRY           (1,56,69) DRY           (1,56,70)
     DRY           (1,57,60) DRY           (1,57,61) DRY           (1,57,62) DRY           (1,57,63) DRY           (1,57,64)
     DRY           (1,57,65) DRY           (1,57,66) DRY           (1,57,67) DRY           (1,57,68) DRY           (1,57,69)
     DRY           (1,57,70) DRY           (1,58,59) DRY           (1,58,60) DRY           (1,58,61) DRY           (1,58,62)
     DRY           (1,58,63) DRY           (1,58,64) DRY           (1,58,65) DRY           (1,58,66) DRY           (1,58,67)
     DRY           (1,58,68) DRY           (1,58,69) DRY           (1,58,70) DRY           (1,59,60) DRY           (1,59,61)
     DRY           (1,59,62) DRY           (1,59,63) DRY           (1,59,64) DRY           (1,59,65) DRY           (1,59,66)
     DRY           (1,59,67) DRY           (1,59,68) DRY           (1,59,69) DRY           (1,59,70) DRY           (1,60,61)
     DRY           (1,60,62) DRY           (1,60,63) DRY           (1,60,64) DRY           (1,60,65) DRY           (1,60,66)
     DRY           (1,60,67) DRY           (1,60,68) DRY           (1,60,69) DRY           (1,60,70) DRY           (2,54,63)
     DRY           (2,55,63) DRY           (2,55,64) DRY           (2,55,65) DRY           (2,56,62) DRY           (2,56,63)
     DRY           (2,56,64) DRY           (2,56,65) DRY           (2,56,66) DRY           (2,56,67) DRY           (2,57,62)
     DRY           (2,57,63) DRY           (2,57,64) DRY           (2,57,65) DRY           (2,57,66) DRY           (2,57,67)
     DRY           (2,57,68) DRY           (2,58,61) DRY           (2,58,62) DRY           (2,58,63) DRY           (2,58,64)
     DRY           (2,58,65) DRY           (2,58,66) DRY           (2,58,67) DRY           (2,58,68) DRY           (2,59,62)
     DRY           (2,59,63) DRY           (2,59,64) DRY           (2,59,65) DRY           (2,59,66) DRY           (2,59,67)
     DRY           (2,59,68) DRY           (2,59,69) DRY           (2,60,63) DRY           (2,60,64) DRY           (2,60,65)
     DRY           (2,60,68)

 CELL CONVERSIONS FOR ITER.=3  STEP=1  PERIOD=1   (NODE or LRC)
     DRY           (1,15,34) DRY           (1,17,29) DRY           (1,17,30) DRY           (1,17,31) DRY           (1,17,32)
     DRY           (1,17,33) DRY           (1,18,33) DRY           (1,52,66) DRY           (1,53,69) DRY           (1,55,70)
     DRY           (2,54,64) DRY           (2,55,66) DRY           (2,55,67) DRY           (2,56,68) DRY           (2,57,61)
     DRY           (2,57,69) DRY           (2,58,69) DRY           (2,60,62) DRY           (2,60,67) DRY           (2,60,69)
     DRY           (2,60,70)
 UBDSV1 SAVING     FLOW-JA-FACE ON UNIT   1030 AT TIME STEP      1, STRESS PERIOD      1
 UBDSV06 SAVING             RCHA IN MODEL A01_PLEASANT     PACKAGE A01_PLEASANT    CONNECTED TO MODEL A01_PLEASANT     PACKAGE RCHA_0           ON UNIT   1030 AT TIME STEP      1, STRESS PERIOD      1
 UBDSV06 SAVING              CHD IN MODEL A01_PLEASANT     PACKAGE A01_PLEASANT    CONNECTED TO MODEL A01_PLEASANT     PACKAGE CHD_0            ON UNIT   1030 AT TIME STEP      1, STRESS PERIOD      1
 UBDSV06 SAVING              LAK IN MODEL A01_PLEASANT     PACKAGE A01_PLEASANT    CONNECTED TO MODEL A01_PLEASANT     PACKAGE LAK_0            ON UNIT   1030 AT TIME STEP      1, STRESS PERIOD      1

 HEAD WILL BE SAVED ON UNIT 1031 AT END OF TIME STEP    1, STRESS PERIOD    1


  LAK_0 BUDGET FOR ENTIRE MODEL AT END OF TIME STEP    1, STRESS PERIOD   1
  ------------------------------------------------------------------------------

     CUMULATIVE LAK_0      L**3       RATES FOR THIS TIME STEP      L**3/T
     ------------------                 ------------------------

           IN:                                      IN:
           ---                                      ---
                 GWF =        3686.3284                   GWF =        3686.3284
            RAINFALL =        1087.7515              RAINFALL =        1087.7515
         EVAPORATION =           0.0000           EVAPORATION =           0.0000
              RUNOFF =           0.0000                RUNOFF =           0.0000
          EXT-INFLOW =           0.0000            EXT-INFLOW =           0.0000
          WITHDRAWAL =           0.0000            WITHDRAWAL =           0.0000
         EXT-OUTFLOW =           0.0000           EXT-OUTFLOW =           0.0000
             STORAGE =           0.0000               STORAGE =           0.0000
            CONSTANT =           0.0000              CONSTANT =           0.0000

            TOTAL IN =        4774.0799              TOTAL IN =        4774.0799

          OUT:                                     OUT:
          ----                                     ----
                 GWF =        4407.3890                   GWF =        4407.3890
            RAINFALL =           0.0000              RAINFALL =           0.0000
         EVAPORATION =         372.1255           EVAPORATION =         372.1255
              RUNOFF =           0.0000                RUNOFF =           0.0000
          EXT-INFLOW =           0.0000            EXT-INFLOW =           0.0000
          WITHDRAWAL =           0.0000            WITHDRAWAL =           0.0000
         EXT-OUTFLOW =           0.0000           EXT-OUTFLOW =           0.0000
             STORAGE =           0.0000               STORAGE =           0.0000
            CONSTANT =           0.0000              CONSTANT =           0.0000

           TOTAL OUT =        4779.5145             TOTAL OUT =        4779.5145

            IN - OUT =          -5.4346              IN - OUT =          -5.4346

 PERCENT DISCREPANCY =          -0.11     PERCENT DISCREPANCY =          -0.11



  VOLUME BUDGET FOR ENTIRE MODEL AT END OF TIME STEP    1, STRESS PERIOD   1
  ---------------------------------------------------------------------------------------------------

     CUMULATIVE VOLUME      L**3       RATES FOR THIS TIME STEP      L**3/T          PACKAGE NAME    
     ------------------                 ------------------------                     ----------------

           IN:                                      IN:
           ---                                      ---
                RCHA =        4749.7228                  RCHA =        4749.7228     RCHA_0                           
                 CHD =       30662.8689                   CHD =       30662.8689     CHD_0                            
                 LAK =        4407.3890                   LAK =        4407.3890     LAK_0                            

            TOTAL IN =       39819.9807              TOTAL IN =       39819.9807

          OUT:                                     OUT:
          ----                                     ----
                RCHA =           0.0000                  RCHA =           0.0000     RCHA_0                           
                 CHD =       36139.2017                   CHD =       36139.2017     CHD_0                            
                 LAK =        3686.3284                   LAK =        3686.3284     LAK_0                            

           TOTAL OUT =       39825.5301             TOTAL OUT =       39825.5301

            IN - OUT =          -5.5493              IN - OUT =          -5.5493

 PERCENT DISCREPANCY =          -0.01     PERCENT DISCREPANCY =          -0.01




         TIME SUMMARY AT END OF TIME STEP    1 IN STRESS PERIOD    1
                    SECONDS     MINUTES      HOURS       DAYS        YEARS
                    -----------------------------------------------------------
   TIME STEP LENGTH  86400.      1440.0      24.000      1.0000     2.73785E-03
 STRESS PERIOD TIME  86400.      1440.0      24.000      1.0000     2.73785E-03
         TOTAL TIME  86400.      1440.0      24.000      1.0000     2.73785E-03


end timestep

