 LISTING FILE: mt_____06_mt.list
                         UNIT  16

 OPENING mt3d_link.ftl
 FILE TYPE:FTL   UNIT  10

 OPENING mt_____06_mt.btn
 FILE TYPE:BTN   UNIT  31

 OPENING mt_____06_mt.adv
 FILE TYPE:ADV   UNIT  32

 OPENING mt_____06_mt.dsp
 FILE TYPE:DSP   UNIT  33

 OPENING mt_____06_mt.ssm
 FILE TYPE:SSM   UNIT  34

 OPENING mt_____06_mt.gcg
 FILE TYPE:GCG   UNIT  35

                              +++++++++++++++++++++++++++++++++++++++++++++++++++++++++++++++++++++++
                              +                                                                     +
                              +                              MT3D-USGS                              +
                              +             A Modular 3D Multi-Species Transport Model              +
                              +    For Simulation of Advection, Dispersion and Chemical Reactions   +
                              +                of Contaminants in Groundwater Systems               +
                              +                                                                     +
                              +++++++++++++++++++++++++++++++++++++++++++++++++++++++++++++++++++++++

  ----- 
 | M T | ## BTN for MT3DMS, generated by Flopy.                                          
 | 3 D | ##                                                                              
  ----- 
 THE TRANSPORT MODEL CONSISTS OF     1 LAYER(S)   20 ROW(S)   40 COLUMN(S)
 NUMBER OF STRESS PERIOD(S) FOR TRANSPORT SIMULATION =    3
 NUMBER OF ALL COMPONENTS INCLUDED IN SIMULATION =    1
 NUMBER OF MOBILE COMPONENTS INCLUDED IN SIMULATION =    1
 UNIT FOR TIME IS D   ;  UNIT FOR LENGTH IS M   ;  UNIT FOR MASS IS KG  
 OPTIONAL PACKAGES INCLUDED IN CURRENT SIMULATION:
  o ADV   ON UNIT 32
  o DSP   ON UNIT 33
  o SSM   ON UNIT 34
  o GCG   ON UNIT 35


 BTN1 -- BASIC TRANSPORT PACKAGE, VERSION 1, MAY 2016, INPUT READ FROM UNIT 31

 BTN PACKAGE KEYWORD INPUT: 
 DRYCELL OPTION NOT SET
  DRY CELL BUDGET OMITTED FROM GLOBAL MASS BALANCE SUMMARY

 LAYER NUMBER  AQUIFER TYPE
 ------------  ------------
       1            0
                                       WIDTH ALONG ROWS (DELR)  =   1.000000    
                                       WIDTH ALONG COLS (DELC)  =   1.000000    
                                       TOP ELEV. OF 1ST LAYER   =   0.000000    

                     CELL THICKNESS (DZ)      FOR LAYER  1 READ ON UNIT  31 USING FORMAT: "          (40E15.6) "
                     ------------------------------------------------------------------------------------------
                                       POROSITY                 =  0.3000000     FOR LAYER  1

                     CONCN. BOUNDARY ARRAY    FOR LAYER  1 READ ON UNIT  31 USING FORMAT: "            (40I10) "
                     ------------------------------------------------------------------------------------------

                     INITIAL CONC.: COMP.  01 FOR LAYER  1 READ ON UNIT  31 USING FORMAT: "          (40E15.6) "
                     ------------------------------------------------------------------------------------------

 VALUE INDICATING INACTIVE CONCENTRATION CELLS =   0.1000000E+31
 MINIMUM SATURATED THICKNESS [THKMIN] ALLOWED =  0.0100000 OF TOTAL CELL THICKNESS


 OUTPUT CONTROL OPTIONS
 ----------------------

 DO NOT PRINT CELL CONCENTRATION
 DO NOT PRINT PARTICLE NUMBER IN EACH CELL
 DO NOT PRINT RETARDATION FACTOR
 DO NOT PRINT DISPERSION COEFFICIENT
 SAVE DISSOLVED PHASE CONCENTRATIONS IN UNFORMATTED FILES [MT3Dnnn.UCN]
  FOR EACH SPECIES ON UNITS 201 AND ABOVE

 NUMBER OF TIMES AT WHICH SIMULATION RESULTS ARE SAVED =  100
 TOTAL ELAPSED TIMES AT WHICH SIMULATION RESULTS ARE SAVED: 
    0.0000      0.29000      0.58000      0.87000       1.1600       1.4500       1.7400       2.0300    
    2.3200       2.6100       2.9000       3.1900       3.4800       3.7700       4.0600       4.3500    
    4.6400       4.9300       5.2200       5.5100       5.8000       6.0900       6.3800       6.6700    
    6.9600       7.2500       7.5400       7.8300       8.1200       8.4100       8.7000       8.9900    
    9.2800       9.5700       9.8600       10.150       10.440       10.730       11.020       11.310    
    11.600       11.890       12.180       12.470       12.760       13.050       13.340       13.630    
    13.920       14.210       14.500       14.790       15.080       15.370       15.660       15.950    
    16.240       16.530       16.820       17.110       17.400       17.690       17.980       18.270    
    18.560       18.850       19.140       19.430       19.720       20.010       20.300       20.590    
    20.880       21.170       21.460       21.750       22.040       22.330       22.620       22.910    
    23.200       23.490       23.780       24.070       24.360       24.650       24.940       25.230    
    25.520       25.810       26.100       26.390       26.680       26.970       27.260       27.550    
    27.840       28.130       28.420       28.710    

 NUMBER OF OBSERVATION POINTS =    0

 SAVE ONE-LINE SUMMARY OF MASS BUDGETS IN FILES [MT3Dnnn.MAS]
  FOR EACH SPECIES ON UNITS 601 AND ABOVE, EVERY  1 TRANSPORT STEPS

 MAXIMUM LENGTH ALONG THE X (J) AXIS =   40.00000    
 MAXIMUM LENGTH ALONG THE Y (I) AXIS =   20.00000    
 MAXIMUM LENGTH ALONG THE Z (K) AXIS =   1.000000    
 FMI1 -- FLOW MODEL INTERFACE PACKAGE, VERSION 1, MAY 2016, INPUT READ FROM UNIT 10
 FLOW MODEL IS STEADY-STATE
 FLOW MODEL CONTAINS CONSTANT-HEAD CELLS


 ADV1 -- ADVECTION PACKAGE, VERSION 1, MAY 2016, INPUT READ FROM UNIT 32
 ADVECTION IS SOLVED WITH THE ULTIMATE SCHEME
 COURANT NUMBER ALLOWED IN SOLVING THE ADVECTION TERM = 0.500    


 ADVECTION SOLUTION OPTIONS
 --------------------------

 ADVECTION IS SOLVED WITH THE ULTIMATE SCHEME
 COURANT NUMBER ALLOWED IN SOLVING THE ADVECTION TERM = 0.500    

 DSP1 -- DISPERSION PACKAGE, VERSION 1, MAY 2016, INPUT READ FROM UNIT 33


 DISPERSION INPUT PARAMETERS
 ---------------------------

                                       LONG. DISPERSIVITY (AL)  =  0.1000000     FOR LAYER  1
                                       H. TRANS./LONG. DISP.    =  0.1000000    
                                       V. TRANS./LONG. DISP.    =  0.1000000E-01
                                       DIFFUSION COEFFICIENT    =  0.1000000E-08

 SSM1 -- SINK & SOURCE MIXING PACKAGE, VERSION 1, MAY 2016, INPUT READ FROM UNIT 34
 HEADER LINE OF THE SSM PACKAGE INPUT FILE:
  T F F F F F F F F F F F F F F F                                        
 MAJOR STRESS COMPONENTS PRESENT IN THE FLOW MODEL:
  o WELL [WEL]
 MAXIMUM NUMBER OF POINT SINKS/SOURCES =     100

 GCG1 -- GENERALIZED CONJUGATE GRADIENT SOLVER PACKAGE, VERSION 1, OCTOBER 2010 INPUT READ FROM UNIT 35
 MAXIMUM OF    1 OUTER ITERATIONS
        AND   50 INNER ITERATIONS ALLOWED FOR CLOSURE
 THE PRECONDITIONING TYPE SELECTED IS MODIFIED INCOMPLETE CHOLESKY (MIC).
 DISPERSION CROSS TERMS LUMPED INTO RIGHT-HAND-SIDE



                                               SOLUTION BY THE GENERALIZED CONJUGATE GRADIENT METHOD
                                               -----------------------------------------------------
                                     MAXIMUM OUTER ITERATIONS ALLOWED FOR CLOSURE =        1
                                     MAXIMUM INNER ITERATIONS ALLOWED FOR CLOSURE =       50
                                                    PRECONDITIONING TYPE SELECTED =    3
                                                           ACCELERATION PARAMETER =     1.0000    
                                       CONCENTRATION CHANGE CRITERION FOR CLOSURE =    0.10000E-05
                                       GCG CONCENTRATION CHANGE PRINTOUT INTERVAL =      999


                                   ++++++++++++++++++++++++++++++++++++++++++++++++++++++++++++++
                                                       STRESS PERIOD NO.  001
                                   ++++++++++++++++++++++++++++++++++++++++++++++++++++++++++++++


 LENGTH OF CURRENT STRESS PERIOD =   1.000000    
 NUMBER OF TIME STEPS FOR CURRENT STRESS PERIOD =    1
 TIME STEP MULTIPLIER USED IN FLOW SOLUTION =   1.000000    

 ***Type of Transport Simulation is TRANSIENT

 USER-SPECIFIED TRANSPORT STEPSIZE =   0.000000    D   
 MAXIMUM NUMBER OF TRANSPORT STEPS ALLOWED  IN ONE FLOW TIME STEP =     50000
 MULTIPLIER FOR SUCCESSIVE TRANSPORT STEPS  [USED IN IMPLICIT SCHEMES] =     1.000
 MAXIMUM TRANSPORT STEP SIZE  [USED IN IMPLICIT SCHEMES] =   0.000000    D   

       NO    LAYER   ROW   COLUMN   CONCENTRATION       TYPE            COMPONENT
       1       1       1       1       1.000000         CONSTANT CONC.      1
       2       1       2       1       1.000000         CONSTANT CONC.      1
       3       1       3       1       1.000000         CONSTANT CONC.      1
       4       1       4       1       1.000000         CONSTANT CONC.      1
       5       1       5       1       1.000000         CONSTANT CONC.      1
       6       1       6       1       1.000000         CONSTANT CONC.      1
       7       1       7       1       1.000000         CONSTANT CONC.      1
       8       1       8       1       1.000000         CONSTANT CONC.      1
       9       1       9       1       1.000000         CONSTANT CONC.      1
      10       1      10       1       1.000000         CONSTANT CONC.      1
      11       1      11       1       1.000000         CONSTANT CONC.      1
      12       1      12       1       1.000000         CONSTANT CONC.      1
      13       1      13       1       1.000000         CONSTANT CONC.      1
      14       1      14       1       1.000000         CONSTANT CONC.      1
      15       1      15       1       1.000000         CONSTANT CONC.      1
      16       1      16       1       1.000000         CONSTANT CONC.      1
      17       1      17       1       1.000000         CONSTANT CONC.      1
      18       1      18       1       1.000000         CONSTANT CONC.      1
      19       1      19       1       1.000000         CONSTANT CONC.      1
      20       1      20       1       1.000000         CONSTANT CONC.      1


                                          ================================================
                                                         TIME STEP NO.  001
                                          ================================================

 FROM TIME =   0.0000     TO    1.0000    


                    "THKSAT          " FLOW TERMS FOR TIME STEP  1, STRESS PERIOD  1 READ UNFORMATTED ON UNIT 10
                    --------------------------------------------------------------------------------------------

                    "QXX             " FLOW TERMS FOR TIME STEP  1, STRESS PERIOD  1 READ UNFORMATTED ON UNIT 10
                    --------------------------------------------------------------------------------------------

                    "QYY             " FLOW TERMS FOR TIME STEP  1, STRESS PERIOD  1 READ UNFORMATTED ON UNIT 10
                    --------------------------------------------------------------------------------------------

 MAXIMUM STEPSIZE DURING WHICH ANY PARTICLE CANNOT MOVE MORE THAN ONE CELL
 = 0.6000    (WHEN MIN. R.F.=1)  AT K=   1, I=  20, J=  38

 MAXIMUM STEPSIZE WHICH MEETS STABILITY CRITERION OF THE ADVECTION TERM
 (FOR PURE FINITE-DIFFERENCE OPTION, MIXELM=0) 
 = 0.6000    (WHEN MIN. R.F.=1)  AT K=   1, I=  20, J=  39

                    "CNH             " FLOW TERMS FOR TIME STEP  1, STRESS PERIOD  1 READ UNFORMATTED ON UNIT 10
                    --------------------------------------------------------------------------------------------

                    "WEL             " FLOW TERMS FOR TIME STEP  1, STRESS PERIOD  1 READ UNFORMATTED ON UNIT 10
                    --------------------------------------------------------------------------------------------


 TOTAL NUMBER OF POINT SOURCES/SINKS PRESENT IN THE FLOW MODEL =    60

 MAXIMUM STEPSIZE WHICH MEETS STABILITY CRITERION OF THE SINK & SOURCE TERM
 = 0.6000    (WHEN MIN. R.F.=1)  AT K=   1, I=   1, J=   1

 MAXIMUM STEPSIZE WHICH MEETS STABILITY CRITERION OF THE DISPERSION TERM
 =  2.727    (WHEN MIN. R.F.=1)  AT K=   1, I=   2, J=  38



 >>>>>>>>>>>>>>>>>>>>>>>>>>>>>>>>>>>>>>>>>>>>>>>>>>>>>>>FOR COMPONENT NO. 01<<<<<<<<<<<<<<<<<<<<<<<<<<<<<<<<<<<<<<<<<<<<<<<<<<<<<<<


                                            -------------------------------------------
                                                      TRANSPORT STEP NO.    1
                                            -------------------------------------------

 TOTAL ELAPSED TIME SINCE BEGINNING OF SIMULATION =   0.000000    D   
 .....................................................................

                     CUMULATIVE MASS BUDGETS AT END OF TRANSPORT STEP    1, TIME STEP    1, STRESS PERIOD    1
                     -----------------------------------------------------------------------------------------

                                                             IN                           OUT
                                                      ----------------             ----------------
                               CONSTANT CONCENTRATION:    0.000000                    0.000000    
                                        CONSTANT HEAD:    0.000000                    0.000000    
                                                WELLS:    0.000000                    0.000000    
                               MASS STOR (FLOW MODEL):    0.000000                    0.000000    
                                MASS STORAGE (SOLUTE):    0.000000                    0.000000    
                            ---------------------------------------------------------------------------
                                              [TOTAL]:    0.000000     KG             0.000000     KG  

                                                          NET (IN - OUT):    0.000000    
                                                   DISCREPANCY (PERCENT):    0.000000    
     1 CALLS TO GCG PACKAGE FOR TRANSPORT TIME STEP     2 IN FLOW TIME STEP     1 STRESS PERIOD     1
      3 TOTAL ITERATIONS



 >>>>>>>>>>>>>>>>>>>>>>>>>>>>>>>>>>>>>>>>>>>>>>>>>>>>>>>FOR COMPONENT NO. 01<<<<<<<<<<<<<<<<<<<<<<<<<<<<<<<<<<<<<<<<<<<<<<<<<<<<<<<


                                            -------------------------------------------
                                                      TRANSPORT STEP NO.    2
                                            -------------------------------------------

 TOTAL ELAPSED TIME SINCE BEGINNING OF SIMULATION =  0.2900000    D   
 .....................................................................

                     CUMULATIVE MASS BUDGETS AT END OF TRANSPORT STEP    2, TIME STEP    1, STRESS PERIOD    1
                     -----------------------------------------------------------------------------------------

                                                             IN                           OUT
                                                      ----------------             ----------------
                               CONSTANT CONCENTRATION:    3.049130                    0.000000    
                                        CONSTANT HEAD:    0.000000                    0.000000    
                                                WELLS:    0.000000                    0.000000    
                               MASS STOR (FLOW MODEL):    0.000000                    0.000000    
                                MASS STORAGE (SOLUTE):    0.000000                   -3.049131    
                            ---------------------------------------------------------------------------
                                              [TOTAL]:    3.049130     KG            -3.049131     KG  

                                                          NET (IN - OUT):  -0.1192093E-05
                                                   DISCREPANCY (PERCENT):  -0.3909616E-04
     1 CALLS TO GCG PACKAGE FOR TRANSPORT TIME STEP     3 IN FLOW TIME STEP     1 STRESS PERIOD     1
      3 TOTAL ITERATIONS



 >>>>>>>>>>>>>>>>>>>>>>>>>>>>>>>>>>>>>>>>>>>>>>>>>>>>>>>FOR COMPONENT NO. 01<<<<<<<<<<<<<<<<<<<<<<<<<<<<<<<<<<<<<<<<<<<<<<<<<<<<<<<


                                            -------------------------------------------
                                                      TRANSPORT STEP NO.    3
                                            -------------------------------------------

 TOTAL ELAPSED TIME SINCE BEGINNING OF SIMULATION =  0.5800000    D   
 .....................................................................

                     CUMULATIVE MASS BUDGETS AT END OF TRANSPORT STEP    3, TIME STEP    1, STRESS PERIOD    1
                     -----------------------------------------------------------------------------------------

                                                             IN                           OUT
                                                      ----------------             ----------------
                               CONSTANT CONCENTRATION:    6.013311                    0.000000    
                                        CONSTANT HEAD:    0.000000                    0.000000    
                                                WELLS:    0.000000                    0.000000    
                               MASS STOR (FLOW MODEL):    0.000000                    0.000000    
                                MASS STORAGE (SOLUTE):    0.000000                   -6.013310    
                            ---------------------------------------------------------------------------
                                              [TOTAL]:    6.013311     KG            -6.013310     KG  

                                                          NET (IN - OUT):   0.9536743E-06
                                                   DISCREPANCY (PERCENT):   0.1585939E-04
     1 CALLS TO GCG PACKAGE FOR TRANSPORT TIME STEP     4 IN FLOW TIME STEP     1 STRESS PERIOD     1
      3 TOTAL ITERATIONS



 >>>>>>>>>>>>>>>>>>>>>>>>>>>>>>>>>>>>>>>>>>>>>>>>>>>>>>>FOR COMPONENT NO. 01<<<<<<<<<<<<<<<<<<<<<<<<<<<<<<<<<<<<<<<<<<<<<<<<<<<<<<<


                                            -------------------------------------------
                                                      TRANSPORT STEP NO.    4
                                            -------------------------------------------

 TOTAL ELAPSED TIME SINCE BEGINNING OF SIMULATION =  0.8700000    D   
 .....................................................................

                     CUMULATIVE MASS BUDGETS AT END OF TRANSPORT STEP    4, TIME STEP    1, STRESS PERIOD    1
                     -----------------------------------------------------------------------------------------

                                                             IN                           OUT
                                                      ----------------             ----------------
                               CONSTANT CONCENTRATION:    8.937055                    0.000000    
                                        CONSTANT HEAD:    0.000000                    0.000000    
                                                WELLS:    0.000000                    0.000000    
                               MASS STOR (FLOW MODEL):    0.000000                    0.000000    
                                MASS STORAGE (SOLUTE):    0.000000                   -8.937053    
                            ---------------------------------------------------------------------------
                                              [TOTAL]:    8.937055     KG            -8.937053     KG  

                                                          NET (IN - OUT):   0.1907349E-05
                                                   DISCREPANCY (PERCENT):   0.2134203E-04
     1 CALLS TO GCG PACKAGE FOR TRANSPORT TIME STEP     5 IN FLOW TIME STEP     1 STRESS PERIOD     1
      2 TOTAL ITERATIONS
  MAXIMUM CONCENTRATION CHANGES FOR EACH ITERATION:
  MAX. CHANGE LAYER,ROW,COL MAX. CHANGE LAYER,ROW,COL MAX. CHANGE LAYER,ROW,COL MAX. CHANGE LAYER,ROW,COL MAX. CHANGE LAYER,ROW,COL
 ------------------------------------------------------------------------------------------------------------------------------------
   0.6903E-02 (  1,  3,  2)  0.2980E-06 (  1,  1,  2)



 >>>>>>>>>>>>>>>>>>>>>>>>>>>>>>>>>>>>>>>>>>>>>>>>>>>>>>>FOR COMPONENT NO. 01<<<<<<<<<<<<<<<<<<<<<<<<<<<<<<<<<<<<<<<<<<<<<<<<<<<<<<<


                                            -------------------------------------------
                                                      TRANSPORT STEP NO.    5
                                            -------------------------------------------

 TOTAL ELAPSED TIME SINCE BEGINNING OF SIMULATION =   1.000000    D   
 .....................................................................

                     CUMULATIVE MASS BUDGETS AT END OF TRANSPORT STEP    5, TIME STEP    1, STRESS PERIOD    1
                     -----------------------------------------------------------------------------------------

                                                             IN                           OUT
                                                      ----------------             ----------------
                               CONSTANT CONCENTRATION:    10.24309                    0.000000    
                                        CONSTANT HEAD:    0.000000                    0.000000    
                                                WELLS:    0.000000                    0.000000    
                               MASS STOR (FLOW MODEL):    0.000000                    0.000000    
                                MASS STORAGE (SOLUTE):    0.000000                   -10.24308    
                            ---------------------------------------------------------------------------
                                              [TOTAL]:    10.24309     KG            -10.24308     KG  

                                                          NET (IN - OUT):   0.1907349E-05
                                                   DISCREPANCY (PERCENT):   0.1862084E-04


                                   ++++++++++++++++++++++++++++++++++++++++++++++++++++++++++++++
                                                       STRESS PERIOD NO.  002
                                   ++++++++++++++++++++++++++++++++++++++++++++++++++++++++++++++


 LENGTH OF CURRENT STRESS PERIOD =   18.00000    
 NUMBER OF TIME STEPS FOR CURRENT STRESS PERIOD =    1
 TIME STEP MULTIPLIER USED IN FLOW SOLUTION =   1.000000    

 ***Type of Transport Simulation is TRANSIENT

 USER-SPECIFIED TRANSPORT STEPSIZE =   0.000000    D   
 MAXIMUM NUMBER OF TRANSPORT STEPS ALLOWED  IN ONE FLOW TIME STEP =     50000
 MULTIPLIER FOR SUCCESSIVE TRANSPORT STEPS  [USED IN IMPLICIT SCHEMES] =     1.000
 MAXIMUM TRANSPORT STEP SIZE  [USED IN IMPLICIT SCHEMES] =   0.000000    D   

       NO    LAYER   ROW   COLUMN   CONCENTRATION       TYPE            COMPONENT
       1       1       1       1       0.000000         CONSTANT CONC.      1
       2       1       2       1       0.000000         CONSTANT CONC.      1
       3       1       3       1       0.000000         CONSTANT CONC.      1
       4       1       4       1       0.000000         CONSTANT CONC.      1
       5       1       5       1       0.000000         CONSTANT CONC.      1
       6       1       6       1       0.000000         CONSTANT CONC.      1
       7       1       7       1       0.000000         CONSTANT CONC.      1
       8       1       8       1       0.000000         CONSTANT CONC.      1
       9       1       9       1       0.000000         CONSTANT CONC.      1
      10       1      10       1       0.000000         CONSTANT CONC.      1
      11       1      11       1       0.000000         CONSTANT CONC.      1
      12       1      12       1       0.000000         CONSTANT CONC.      1
      13       1      13       1       0.000000         CONSTANT CONC.      1
      14       1      14       1       0.000000         CONSTANT CONC.      1
      15       1      15       1       0.000000         CONSTANT CONC.      1
      16       1      16       1       0.000000         CONSTANT CONC.      1
      17       1      17       1       0.000000         CONSTANT CONC.      1
      18       1      18       1       0.000000         CONSTANT CONC.      1
      19       1      19       1       0.000000         CONSTANT CONC.      1
      20       1      20       1       0.000000         CONSTANT CONC.      1


                                          ================================================
                                                         TIME STEP NO.  001
                                          ================================================

 FROM TIME =   1.0000     TO    19.000    


                    "THKSAT          " FLOW TERMS FOR TIME STEP  1, STRESS PERIOD  2 READ UNFORMATTED ON UNIT 10
                    --------------------------------------------------------------------------------------------

                    "QXX             " FLOW TERMS FOR TIME STEP  1, STRESS PERIOD  2 READ UNFORMATTED ON UNIT 10
                    --------------------------------------------------------------------------------------------

                    "QYY             " FLOW TERMS FOR TIME STEP  1, STRESS PERIOD  2 READ UNFORMATTED ON UNIT 10
                    --------------------------------------------------------------------------------------------

 MAXIMUM STEPSIZE DURING WHICH ANY PARTICLE CANNOT MOVE MORE THAN ONE CELL
 = 0.6000    (WHEN MIN. R.F.=1)  AT K=   1, I=  20, J=  38

 MAXIMUM STEPSIZE WHICH MEETS STABILITY CRITERION OF THE ADVECTION TERM
 (FOR PURE FINITE-DIFFERENCE OPTION, MIXELM=0) 
 = 0.6000    (WHEN MIN. R.F.=1)  AT K=   1, I=  20, J=  39

                    "CNH             " FLOW TERMS FOR TIME STEP  1, STRESS PERIOD  2 READ UNFORMATTED ON UNIT 10
                    --------------------------------------------------------------------------------------------

                    "WEL             " FLOW TERMS FOR TIME STEP  1, STRESS PERIOD  2 READ UNFORMATTED ON UNIT 10
                    --------------------------------------------------------------------------------------------


 TOTAL NUMBER OF POINT SOURCES/SINKS PRESENT IN THE FLOW MODEL =    60

 MAXIMUM STEPSIZE WHICH MEETS STABILITY CRITERION OF THE SINK & SOURCE TERM
 = 0.6000    (WHEN MIN. R.F.=1)  AT K=   1, I=   1, J=   1

 MAXIMUM STEPSIZE WHICH MEETS STABILITY CRITERION OF THE DISPERSION TERM
 =  2.727    (WHEN MIN. R.F.=1)  AT K=   1, I=   2, J=  38


     1 CALLS TO GCG PACKAGE FOR TRANSPORT TIME STEP     1 IN FLOW TIME STEP     1 STRESS PERIOD     2
      3 TOTAL ITERATIONS



 >>>>>>>>>>>>>>>>>>>>>>>>>>>>>>>>>>>>>>>>>>>>>>>>>>>>>>>FOR COMPONENT NO. 01<<<<<<<<<<<<<<<<<<<<<<<<<<<<<<<<<<<<<<<<<<<<<<<<<<<<<<<


                                            -------------------------------------------
                                                      TRANSPORT STEP NO.    1
                                            -------------------------------------------

 TOTAL ELAPSED TIME SINCE BEGINNING OF SIMULATION =   1.160000    D   
 .....................................................................

                     CUMULATIVE MASS BUDGETS AT END OF TRANSPORT STEP    1, TIME STEP    1, STRESS PERIOD    2
                     -----------------------------------------------------------------------------------------

                                                             IN                           OUT
                                                      ----------------             ----------------
                               CONSTANT CONCENTRATION:    10.24309                  -0.1091095    
                                        CONSTANT HEAD:    0.000000                    0.000000    
                                                WELLS:    0.000000                    0.000000    
                               MASS STOR (FLOW MODEL):    0.000000                    0.000000    
                                MASS STORAGE (SOLUTE):    1.629945                   -11.76392    
                            ---------------------------------------------------------------------------
                                              [TOTAL]:    11.87303     KG            -11.87303     KG  

                                                          NET (IN - OUT):   0.1907349E-05
                                                   DISCREPANCY (PERCENT):   0.1606455E-04
     1 CALLS TO GCG PACKAGE FOR TRANSPORT TIME STEP     2 IN FLOW TIME STEP     1 STRESS PERIOD     2
      3 TOTAL ITERATIONS



 >>>>>>>>>>>>>>>>>>>>>>>>>>>>>>>>>>>>>>>>>>>>>>>>>>>>>>>FOR COMPONENT NO. 01<<<<<<<<<<<<<<<<<<<<<<<<<<<<<<<<<<<<<<<<<<<<<<<<<<<<<<<


                                            -------------------------------------------
                                                      TRANSPORT STEP NO.    2
                                            -------------------------------------------

 TOTAL ELAPSED TIME SINCE BEGINNING OF SIMULATION =   1.450000    D   
 .....................................................................

                     CUMULATIVE MASS BUDGETS AT END OF TRANSPORT STEP    2, TIME STEP    1, STRESS PERIOD    2
                     -----------------------------------------------------------------------------------------

                                                             IN                           OUT
                                                      ----------------             ----------------
                               CONSTANT CONCENTRATION:    10.24309                  -0.2071408    
                                        CONSTANT HEAD:    0.000000                    0.000000    
                                                WELLS:    0.000000                    0.000000    
                               MASS STOR (FLOW MODEL):    0.000000                    0.000000    
                                MASS STORAGE (SOLUTE):    3.845137                   -13.88108    
                            ---------------------------------------------------------------------------
                                              [TOTAL]:    14.08822     KG            -14.08822     KG  

                                                          NET (IN - OUT):   0.1907349E-05
                                                   DISCREPANCY (PERCENT):   0.1353860E-04
     1 CALLS TO GCG PACKAGE FOR TRANSPORT TIME STEP     3 IN FLOW TIME STEP     1 STRESS PERIOD     2
      3 TOTAL ITERATIONS



 >>>>>>>>>>>>>>>>>>>>>>>>>>>>>>>>>>>>>>>>>>>>>>>>>>>>>>>FOR COMPONENT NO. 01<<<<<<<<<<<<<<<<<<<<<<<<<<<<<<<<<<<<<<<<<<<<<<<<<<<<<<<


                                            -------------------------------------------
                                                      TRANSPORT STEP NO.    3
                                            -------------------------------------------

 TOTAL ELAPSED TIME SINCE BEGINNING OF SIMULATION =   1.740000    D   
 .....................................................................

                     CUMULATIVE MASS BUDGETS AT END OF TRANSPORT STEP    3, TIME STEP    1, STRESS PERIOD    2
                     -----------------------------------------------------------------------------------------

                                                             IN                           OUT
                                                      ----------------             ----------------
                               CONSTANT CONCENTRATION:    10.24309                  -0.2489471    
                                        CONSTANT HEAD:    0.000000                    0.000000    
                                                WELLS:    0.000000                    0.000000    
                               MASS STOR (FLOW MODEL):    0.000000                    0.000000    
                                MASS STORAGE (SOLUTE):    5.860157                   -15.85429    
                            ---------------------------------------------------------------------------
                                              [TOTAL]:    16.10324     KG            -16.10324     KG  

                                                          NET (IN - OUT):   0.1907349E-05
                                                   DISCREPANCY (PERCENT):   0.1184450E-04
     1 CALLS TO GCG PACKAGE FOR TRANSPORT TIME STEP     4 IN FLOW TIME STEP     1 STRESS PERIOD     2
      3 TOTAL ITERATIONS



 >>>>>>>>>>>>>>>>>>>>>>>>>>>>>>>>>>>>>>>>>>>>>>>>>>>>>>>FOR COMPONENT NO. 01<<<<<<<<<<<<<<<<<<<<<<<<<<<<<<<<<<<<<<<<<<<<<<<<<<<<<<<


                                            -------------------------------------------
                                                      TRANSPORT STEP NO.    4
                                            -------------------------------------------

 TOTAL ELAPSED TIME SINCE BEGINNING OF SIMULATION =   2.030000    D   
 .....................................................................

                     CUMULATIVE MASS BUDGETS AT END OF TRANSPORT STEP    4, TIME STEP    1, STRESS PERIOD    2
                     -----------------------------------------------------------------------------------------

                                                             IN                           OUT
                                                      ----------------             ----------------
                               CONSTANT CONCENTRATION:    10.24309                  -0.2641113    
                                        CONSTANT HEAD:    0.000000                    0.000000    
                                                WELLS:    0.000000                    0.000000    
                               MASS STOR (FLOW MODEL):    0.000000                    0.000000    
                                MASS STORAGE (SOLUTE):    7.689246                   -17.66822    
                            ---------------------------------------------------------------------------
                                              [TOTAL]:    17.93233     KG            -17.93233     KG  

                                                          NET (IN - OUT):   0.1907349E-05
                                                   DISCREPANCY (PERCENT):   0.1063637E-04
     1 CALLS TO GCG PACKAGE FOR TRANSPORT TIME STEP     5 IN FLOW TIME STEP     1 STRESS PERIOD     2
      3 TOTAL ITERATIONS



 >>>>>>>>>>>>>>>>>>>>>>>>>>>>>>>>>>>>>>>>>>>>>>>>>>>>>>>FOR COMPONENT NO. 01<<<<<<<<<<<<<<<<<<<<<<<<<<<<<<<<<<<<<<<<<<<<<<<<<<<<<<<


                                            -------------------------------------------
                                                      TRANSPORT STEP NO.    5
                                            -------------------------------------------

 TOTAL ELAPSED TIME SINCE BEGINNING OF SIMULATION =   2.320000    D   
 .....................................................................

                     CUMULATIVE MASS BUDGETS AT END OF TRANSPORT STEP    5, TIME STEP    1, STRESS PERIOD    2
                     -----------------------------------------------------------------------------------------

                                                             IN                           OUT
                                                      ----------------             ----------------
                               CONSTANT CONCENTRATION:    10.24309                  -0.2679512    
                                        CONSTANT HEAD:    0.000000                    0.000000    
                                                WELLS:    0.000000                    0.000000    
                               MASS STOR (FLOW MODEL):    0.000000                    0.000000    
                                MASS STORAGE (SOLUTE):    9.399040                   -19.37417    
                            ---------------------------------------------------------------------------
                                              [TOTAL]:    19.64213     KG            -19.64212     KG  

                                                          NET (IN - OUT):   0.1907349E-05
                                                   DISCREPANCY (PERCENT):   0.9710501E-05
     1 CALLS TO GCG PACKAGE FOR TRANSPORT TIME STEP     6 IN FLOW TIME STEP     1 STRESS PERIOD     2
      3 TOTAL ITERATIONS



 >>>>>>>>>>>>>>>>>>>>>>>>>>>>>>>>>>>>>>>>>>>>>>>>>>>>>>>FOR COMPONENT NO. 01<<<<<<<<<<<<<<<<<<<<<<<<<<<<<<<<<<<<<<<<<<<<<<<<<<<<<<<


                                            -------------------------------------------
                                                      TRANSPORT STEP NO.    6
                                            -------------------------------------------

 TOTAL ELAPSED TIME SINCE BEGINNING OF SIMULATION =   2.610000    D   
 .....................................................................

                     CUMULATIVE MASS BUDGETS AT END OF TRANSPORT STEP    6, TIME STEP    1, STRESS PERIOD    2
                     -----------------------------------------------------------------------------------------

                                                             IN                           OUT
                                                      ----------------             ----------------
                               CONSTANT CONCENTRATION:    10.24309                  -0.2691709    
                                        CONSTANT HEAD:    0.000000                    0.000000    
                                                WELLS:    0.000000                    0.000000    
                               MASS STOR (FLOW MODEL):    0.000000                    0.000000    
                                MASS STORAGE (SOLUTE):    11.01835                   -20.99226    
                            ---------------------------------------------------------------------------
                                              [TOTAL]:    21.26144     KG            -21.26143     KG  

                                                          NET (IN - OUT):   0.3814697E-05
                                                   DISCREPANCY (PERCENT):   0.1794186E-04
     1 CALLS TO GCG PACKAGE FOR TRANSPORT TIME STEP     7 IN FLOW TIME STEP     1 STRESS PERIOD     2
      3 TOTAL ITERATIONS



 >>>>>>>>>>>>>>>>>>>>>>>>>>>>>>>>>>>>>>>>>>>>>>>>>>>>>>>FOR COMPONENT NO. 01<<<<<<<<<<<<<<<<<<<<<<<<<<<<<<<<<<<<<<<<<<<<<<<<<<<<<<<


                                            -------------------------------------------
                                                      TRANSPORT STEP NO.    7
                                            -------------------------------------------

 TOTAL ELAPSED TIME SINCE BEGINNING OF SIMULATION =   2.900000    D   
 .....................................................................

                     CUMULATIVE MASS BUDGETS AT END OF TRANSPORT STEP    7, TIME STEP    1, STRESS PERIOD    2
                     -----------------------------------------------------------------------------------------

                                                             IN                           OUT
                                                      ----------------             ----------------
                               CONSTANT CONCENTRATION:    10.24309                  -0.2696645    
                                        CONSTANT HEAD:    0.000000                    0.000000    
                                                WELLS:    0.000000                    0.000000    
                               MASS STOR (FLOW MODEL):    0.000000                    0.000000    
                                MASS STORAGE (SOLUTE):    12.55859                   -22.53201    
                            ---------------------------------------------------------------------------
                                              [TOTAL]:    22.80168     KG            -22.80167     KG  

                                                          NET (IN - OUT):   0.5722046E-05
                                                   DISCREPANCY (PERCENT):   0.2509485E-04
     1 CALLS TO GCG PACKAGE FOR TRANSPORT TIME STEP     8 IN FLOW TIME STEP     1 STRESS PERIOD     2
      3 TOTAL ITERATIONS



 >>>>>>>>>>>>>>>>>>>>>>>>>>>>>>>>>>>>>>>>>>>>>>>>>>>>>>>FOR COMPONENT NO. 01<<<<<<<<<<<<<<<<<<<<<<<<<<<<<<<<<<<<<<<<<<<<<<<<<<<<<<<


                                            -------------------------------------------
                                                      TRANSPORT STEP NO.    8
                                            -------------------------------------------

 TOTAL ELAPSED TIME SINCE BEGINNING OF SIMULATION =   3.190000    D   
 .....................................................................

                     CUMULATIVE MASS BUDGETS AT END OF TRANSPORT STEP    8, TIME STEP    1, STRESS PERIOD    2
                     -----------------------------------------------------------------------------------------

                                                             IN                           OUT
                                                      ----------------             ----------------
                               CONSTANT CONCENTRATION:    10.24309                  -0.2698236    
                                        CONSTANT HEAD:    0.000000                    0.000000    
                                                WELLS:    0.000000                    0.000000    
                               MASS STOR (FLOW MODEL):    0.000000                    0.000000    
                                MASS STORAGE (SOLUTE):    14.03800                   -24.01126    
                            ---------------------------------------------------------------------------
                                              [TOTAL]:    24.28108     KG            -24.28108     KG  

                                                          NET (IN - OUT):   0.5722046E-05
                                                   DISCREPANCY (PERCENT):   0.2356586E-04
     1 CALLS TO GCG PACKAGE FOR TRANSPORT TIME STEP     9 IN FLOW TIME STEP     1 STRESS PERIOD     2
      3 TOTAL ITERATIONS



 >>>>>>>>>>>>>>>>>>>>>>>>>>>>>>>>>>>>>>>>>>>>>>>>>>>>>>>FOR COMPONENT NO. 01<<<<<<<<<<<<<<<<<<<<<<<<<<<<<<<<<<<<<<<<<<<<<<<<<<<<<<<


                                            -------------------------------------------
                                                      TRANSPORT STEP NO.    9
                                            -------------------------------------------

 TOTAL ELAPSED TIME SINCE BEGINNING OF SIMULATION =   3.480000    D   
 .....................................................................

                     CUMULATIVE MASS BUDGETS AT END OF TRANSPORT STEP    9, TIME STEP    1, STRESS PERIOD    2
                     -----------------------------------------------------------------------------------------

                                                             IN                           OUT
                                                      ----------------             ----------------
                               CONSTANT CONCENTRATION:    10.24309                  -0.2698692    
                                        CONSTANT HEAD:    0.000000                    0.000000    
                                                WELLS:    0.000000                    0.000000    
                               MASS STOR (FLOW MODEL):    0.000000                    0.000000    
                                MASS STORAGE (SOLUTE):    15.46105                   -25.43426    
                            ---------------------------------------------------------------------------
                                              [TOTAL]:    25.70414     KG            -25.70413     KG  

                                                          NET (IN - OUT):   0.7629395E-05
                                                   DISCREPANCY (PERCENT):   0.2968159E-04
     1 CALLS TO GCG PACKAGE FOR TRANSPORT TIME STEP    10 IN FLOW TIME STEP     1 STRESS PERIOD     2
      3 TOTAL ITERATIONS



 >>>>>>>>>>>>>>>>>>>>>>>>>>>>>>>>>>>>>>>>>>>>>>>>>>>>>>>FOR COMPONENT NO. 01<<<<<<<<<<<<<<<<<<<<<<<<<<<<<<<<<<<<<<<<<<<<<<<<<<<<<<<


                                            -------------------------------------------
                                                      TRANSPORT STEP NO.   10
                                            -------------------------------------------

 TOTAL ELAPSED TIME SINCE BEGINNING OF SIMULATION =   3.770000    D   
 .....................................................................

                     CUMULATIVE MASS BUDGETS AT END OF TRANSPORT STEP   10, TIME STEP    1, STRESS PERIOD    2
                     -----------------------------------------------------------------------------------------

                                                             IN                           OUT
                                                      ----------------             ----------------
                               CONSTANT CONCENTRATION:    10.24309                  -0.2698867    
                                        CONSTANT HEAD:    0.000000                    0.000000    
                                                WELLS:    0.000000                    0.000000    
                               MASS STOR (FLOW MODEL):    0.000000                    0.000000    
                                MASS STORAGE (SOLUTE):    16.83485                   -26.80804    
                            ---------------------------------------------------------------------------
                                              [TOTAL]:    27.07793     KG            -27.07793     KG  

                                                          NET (IN - OUT):   0.7629395E-05
                                                   DISCREPANCY (PERCENT):   0.2817569E-04
     1 CALLS TO GCG PACKAGE FOR TRANSPORT TIME STEP    11 IN FLOW TIME STEP     1 STRESS PERIOD     2
      3 TOTAL ITERATIONS



 >>>>>>>>>>>>>>>>>>>>>>>>>>>>>>>>>>>>>>>>>>>>>>>>>>>>>>>FOR COMPONENT NO. 01<<<<<<<<<<<<<<<<<<<<<<<<<<<<<<<<<<<<<<<<<<<<<<<<<<<<<<<


                                            -------------------------------------------
                                                      TRANSPORT STEP NO.   11
                                            -------------------------------------------

 TOTAL ELAPSED TIME SINCE BEGINNING OF SIMULATION =   4.060000    D   
 .....................................................................

                     CUMULATIVE MASS BUDGETS AT END OF TRANSPORT STEP   11, TIME STEP    1, STRESS PERIOD    2
                     -----------------------------------------------------------------------------------------

                                                             IN                           OUT
                                                      ----------------             ----------------
                               CONSTANT CONCENTRATION:    10.24309                  -0.2698926    
                                        CONSTANT HEAD:    0.000000                    0.000000    
                                                WELLS:    0.000000                    0.000000    
                               MASS STOR (FLOW MODEL):    0.000000                    0.000000    
                                MASS STORAGE (SOLUTE):    18.16415                   -28.13733    
                            ---------------------------------------------------------------------------
                                              [TOTAL]:    28.40723     KG            -28.40722     KG  

                                                          NET (IN - OUT):   0.9536743E-05
                                                   DISCREPANCY (PERCENT):   0.3357153E-04
     1 CALLS TO GCG PACKAGE FOR TRANSPORT TIME STEP    12 IN FLOW TIME STEP     1 STRESS PERIOD     2
      3 TOTAL ITERATIONS



 >>>>>>>>>>>>>>>>>>>>>>>>>>>>>>>>>>>>>>>>>>>>>>>>>>>>>>>FOR COMPONENT NO. 01<<<<<<<<<<<<<<<<<<<<<<<<<<<<<<<<<<<<<<<<<<<<<<<<<<<<<<<


                                            -------------------------------------------
                                                      TRANSPORT STEP NO.   12
                                            -------------------------------------------

 TOTAL ELAPSED TIME SINCE BEGINNING OF SIMULATION =   4.350000    D   
 .....................................................................

                     CUMULATIVE MASS BUDGETS AT END OF TRANSPORT STEP   12, TIME STEP    1, STRESS PERIOD    2
                     -----------------------------------------------------------------------------------------

                                                             IN                           OUT
                                                      ----------------             ----------------
                               CONSTANT CONCENTRATION:    10.24309                  -0.2698943    
                                        CONSTANT HEAD:    0.000000                    0.000000    
                                                WELLS:    0.000000                    0.000000    
                               MASS STOR (FLOW MODEL):    0.000000                    0.000000    
                                MASS STORAGE (SOLUTE):    19.45274                   -29.42592    
                            ---------------------------------------------------------------------------
                                              [TOTAL]:    29.69583     KG            -29.69582     KG  

                                                          NET (IN - OUT):   0.1144409E-04
                                                   DISCREPANCY (PERCENT):   0.3853772E-04
     1 CALLS TO GCG PACKAGE FOR TRANSPORT TIME STEP    13 IN FLOW TIME STEP     1 STRESS PERIOD     2
      3 TOTAL ITERATIONS



 >>>>>>>>>>>>>>>>>>>>>>>>>>>>>>>>>>>>>>>>>>>>>>>>>>>>>>>FOR COMPONENT NO. 01<<<<<<<<<<<<<<<<<<<<<<<<<<<<<<<<<<<<<<<<<<<<<<<<<<<<<<<


                                            -------------------------------------------
                                                      TRANSPORT STEP NO.   13
                                            -------------------------------------------

 TOTAL ELAPSED TIME SINCE BEGINNING OF SIMULATION =   4.640000    D   
 .....................................................................

                     CUMULATIVE MASS BUDGETS AT END OF TRANSPORT STEP   13, TIME STEP    1, STRESS PERIOD    2
                     -----------------------------------------------------------------------------------------

                                                             IN                           OUT
                                                      ----------------             ----------------
                               CONSTANT CONCENTRATION:    10.24309                  -0.2698950    
                                        CONSTANT HEAD:    0.000000                  -0.1463037E-35
                                                WELLS:    0.000000                    0.000000    
                               MASS STOR (FLOW MODEL):    0.000000                    0.000000    
                                MASS STORAGE (SOLUTE):    20.70504                   -30.67822    
                            ---------------------------------------------------------------------------
                                              [TOTAL]:    30.94813     KG            -30.94812     KG  

                                                          NET (IN - OUT):   0.9536743E-05
                                                   DISCREPANCY (PERCENT):   0.3081526E-04
     1 CALLS TO GCG PACKAGE FOR TRANSPORT TIME STEP    14 IN FLOW TIME STEP     1 STRESS PERIOD     2
      3 TOTAL ITERATIONS



 >>>>>>>>>>>>>>>>>>>>>>>>>>>>>>>>>>>>>>>>>>>>>>>>>>>>>>>FOR COMPONENT NO. 01<<<<<<<<<<<<<<<<<<<<<<<<<<<<<<<<<<<<<<<<<<<<<<<<<<<<<<<


                                            -------------------------------------------
                                                      TRANSPORT STEP NO.   14
                                            -------------------------------------------

 TOTAL ELAPSED TIME SINCE BEGINNING OF SIMULATION =   4.930000    D   
 .....................................................................

                     CUMULATIVE MASS BUDGETS AT END OF TRANSPORT STEP   14, TIME STEP    1, STRESS PERIOD    2
                     -----------------------------------------------------------------------------------------

                                                             IN                           OUT
                                                      ----------------             ----------------
                               CONSTANT CONCENTRATION:    10.24309                  -0.2698952    
                                        CONSTANT HEAD:    0.000000                  -0.1068689E-34
                                                WELLS:    0.000000                    0.000000    
                               MASS STOR (FLOW MODEL):    0.000000                    0.000000    
                                MASS STORAGE (SOLUTE):    21.92234                   -31.89552    
                            ---------------------------------------------------------------------------
                                              [TOTAL]:    32.16542     KG            -32.16541     KG  

                                                          NET (IN - OUT):   0.1144409E-04
                                                   DISCREPANCY (PERCENT):   0.3557887E-04
     1 CALLS TO GCG PACKAGE FOR TRANSPORT TIME STEP    15 IN FLOW TIME STEP     1 STRESS PERIOD     2
      3 TOTAL ITERATIONS



 >>>>>>>>>>>>>>>>>>>>>>>>>>>>>>>>>>>>>>>>>>>>>>>>>>>>>>>FOR COMPONENT NO. 01<<<<<<<<<<<<<<<<<<<<<<<<<<<<<<<<<<<<<<<<<<<<<<<<<<<<<<<


                                            -------------------------------------------
                                                      TRANSPORT STEP NO.   15
                                            -------------------------------------------

 TOTAL ELAPSED TIME SINCE BEGINNING OF SIMULATION =   5.220000    D   
 .....................................................................

                     CUMULATIVE MASS BUDGETS AT END OF TRANSPORT STEP   15, TIME STEP    1, STRESS PERIOD    2
                     -----------------------------------------------------------------------------------------

                                                             IN                           OUT
                                                      ----------------             ----------------
                               CONSTANT CONCENTRATION:    10.24309                  -0.2698952    
                                        CONSTANT HEAD:    0.000000                  -0.6449981E-34
                                                WELLS:    0.000000                    0.000000    
                               MASS STOR (FLOW MODEL):    0.000000                    0.000000    
                                MASS STORAGE (SOLUTE):    23.10969                   -33.08287    
                            ---------------------------------------------------------------------------
                                              [TOTAL]:    33.35278     KG            -33.35277     KG  

                                                          NET (IN - OUT):   0.1144409E-04
                                                   DISCREPANCY (PERCENT):   0.3431226E-04
     1 CALLS TO GCG PACKAGE FOR TRANSPORT TIME STEP    16 IN FLOW TIME STEP     1 STRESS PERIOD     2
      3 TOTAL ITERATIONS



 >>>>>>>>>>>>>>>>>>>>>>>>>>>>>>>>>>>>>>>>>>>>>>>>>>>>>>>FOR COMPONENT NO. 01<<<<<<<<<<<<<<<<<<<<<<<<<<<<<<<<<<<<<<<<<<<<<<<<<<<<<<<


                                            -------------------------------------------
                                                      TRANSPORT STEP NO.   16
                                            -------------------------------------------

 TOTAL ELAPSED TIME SINCE BEGINNING OF SIMULATION =   5.510000    D   
 .....................................................................

                     CUMULATIVE MASS BUDGETS AT END OF TRANSPORT STEP   16, TIME STEP    1, STRESS PERIOD    2
                     -----------------------------------------------------------------------------------------

                                                             IN                           OUT
                                                      ----------------             ----------------
                               CONSTANT CONCENTRATION:    10.24309                  -0.2698953    
                                        CONSTANT HEAD:    0.000000                  -0.3678142E-33
                                                WELLS:    0.000000                    0.000000    
                               MASS STOR (FLOW MODEL):    0.000000                    0.000000    
                                MASS STORAGE (SOLUTE):    24.26617                   -34.23935    
                            ---------------------------------------------------------------------------
                                              [TOTAL]:    34.50925     KG            -34.50924     KG  

                                                          NET (IN - OUT):   0.1144409E-04
                                                   DISCREPANCY (PERCENT):   0.3316239E-04
     1 CALLS TO GCG PACKAGE FOR TRANSPORT TIME STEP    17 IN FLOW TIME STEP     1 STRESS PERIOD     2
      3 TOTAL ITERATIONS



 >>>>>>>>>>>>>>>>>>>>>>>>>>>>>>>>>>>>>>>>>>>>>>>>>>>>>>>FOR COMPONENT NO. 01<<<<<<<<<<<<<<<<<<<<<<<<<<<<<<<<<<<<<<<<<<<<<<<<<<<<<<<


                                            -------------------------------------------
                                                      TRANSPORT STEP NO.   17
                                            -------------------------------------------

 TOTAL ELAPSED TIME SINCE BEGINNING OF SIMULATION =   5.800000    D   
 .....................................................................

                     CUMULATIVE MASS BUDGETS AT END OF TRANSPORT STEP   17, TIME STEP    1, STRESS PERIOD    2
                     -----------------------------------------------------------------------------------------

                                                             IN                           OUT
                                                      ----------------             ----------------
                               CONSTANT CONCENTRATION:    10.24309                  -0.2698953    
                                        CONSTANT HEAD:    0.000000                  -0.2036956E-32
                                                WELLS:    0.000000                    0.000000    
                               MASS STOR (FLOW MODEL):    0.000000                    0.000000    
                                MASS STORAGE (SOLUTE):    25.39772                   -35.37090    
                            ---------------------------------------------------------------------------
                                              [TOTAL]:    35.64080     KG            -35.64079     KG  

                                                          NET (IN - OUT):   0.1144409E-04
                                                   DISCREPANCY (PERCENT):   0.3210953E-04
     1 CALLS TO GCG PACKAGE FOR TRANSPORT TIME STEP    18 IN FLOW TIME STEP     1 STRESS PERIOD     2
      3 TOTAL ITERATIONS



 >>>>>>>>>>>>>>>>>>>>>>>>>>>>>>>>>>>>>>>>>>>>>>>>>>>>>>>FOR COMPONENT NO. 01<<<<<<<<<<<<<<<<<<<<<<<<<<<<<<<<<<<<<<<<<<<<<<<<<<<<<<<


                                            -------------------------------------------
                                                      TRANSPORT STEP NO.   18
                                            -------------------------------------------

 TOTAL ELAPSED TIME SINCE BEGINNING OF SIMULATION =   6.090000    D   
 .....................................................................

                     CUMULATIVE MASS BUDGETS AT END OF TRANSPORT STEP   18, TIME STEP    1, STRESS PERIOD    2
                     -----------------------------------------------------------------------------------------

                                                             IN                           OUT
                                                      ----------------             ----------------
                               CONSTANT CONCENTRATION:    10.24309                  -0.2698953    
                                        CONSTANT HEAD:    0.000000                  -0.1104366E-31
                                                WELLS:    0.000000                    0.000000    
                               MASS STOR (FLOW MODEL):    0.000000                    0.000000    
                                MASS STORAGE (SOLUTE):    26.50149                   -36.47467    
                            ---------------------------------------------------------------------------
                                              [TOTAL]:    36.74458     KG            -36.74457     KG  

                                                          NET (IN - OUT):   0.1144409E-04
                                                   DISCREPANCY (PERCENT):   0.3114498E-04
     1 CALLS TO GCG PACKAGE FOR TRANSPORT TIME STEP    19 IN FLOW TIME STEP     1 STRESS PERIOD     2
      3 TOTAL ITERATIONS



 >>>>>>>>>>>>>>>>>>>>>>>>>>>>>>>>>>>>>>>>>>>>>>>>>>>>>>>FOR COMPONENT NO. 01<<<<<<<<<<<<<<<<<<<<<<<<<<<<<<<<<<<<<<<<<<<<<<<<<<<<<<<


                                            -------------------------------------------
                                                      TRANSPORT STEP NO.   19
                                            -------------------------------------------

 TOTAL ELAPSED TIME SINCE BEGINNING OF SIMULATION =   6.380000    D   
 .....................................................................

                     CUMULATIVE MASS BUDGETS AT END OF TRANSPORT STEP   19, TIME STEP    1, STRESS PERIOD    2
                     -----------------------------------------------------------------------------------------

                                                             IN                           OUT
                                                      ----------------             ----------------
                               CONSTANT CONCENTRATION:    10.24309                  -0.2698953    
                                        CONSTANT HEAD:    0.000000                  -0.5883374E-31
                                                WELLS:    0.000000                    0.000000    
                               MASS STOR (FLOW MODEL):    0.000000                    0.000000    
                                MASS STORAGE (SOLUTE):    27.58437                   -37.55755    
                            ---------------------------------------------------------------------------
                                              [TOTAL]:    37.82745     KG            -37.82745     KG  

                                                          NET (IN - OUT):   0.7629395E-05
                                                   DISCREPANCY (PERCENT):   0.2016894E-04
     1 CALLS TO GCG PACKAGE FOR TRANSPORT TIME STEP    20 IN FLOW TIME STEP     1 STRESS PERIOD     2
      3 TOTAL ITERATIONS



 >>>>>>>>>>>>>>>>>>>>>>>>>>>>>>>>>>>>>>>>>>>>>>>>>>>>>>>FOR COMPONENT NO. 01<<<<<<<<<<<<<<<<<<<<<<<<<<<<<<<<<<<<<<<<<<<<<<<<<<<<<<<


                                            -------------------------------------------
                                                      TRANSPORT STEP NO.   20
                                            -------------------------------------------

 TOTAL ELAPSED TIME SINCE BEGINNING OF SIMULATION =   6.670000    D   
 .....................................................................

                     CUMULATIVE MASS BUDGETS AT END OF TRANSPORT STEP   20, TIME STEP    1, STRESS PERIOD    2
                     -----------------------------------------------------------------------------------------

                                                             IN                           OUT
                                                      ----------------             ----------------
                               CONSTANT CONCENTRATION:    10.24309                  -0.2698953    
                                        CONSTANT HEAD:    0.000000                  -0.3087562E-30
                                                WELLS:    0.000000                    0.000000    
                               MASS STOR (FLOW MODEL):    0.000000                    0.000000    
                                MASS STORAGE (SOLUTE):    28.64182                   -38.61500    
                            ---------------------------------------------------------------------------
                                              [TOTAL]:    38.88490     KG            -38.88489     KG  

                                                          NET (IN - OUT):   0.1144409E-04
                                                   DISCREPANCY (PERCENT):   0.2943069E-04
     1 CALLS TO GCG PACKAGE FOR TRANSPORT TIME STEP    21 IN FLOW TIME STEP     1 STRESS PERIOD     2
      3 TOTAL ITERATIONS



 >>>>>>>>>>>>>>>>>>>>>>>>>>>>>>>>>>>>>>>>>>>>>>>>>>>>>>>FOR COMPONENT NO. 01<<<<<<<<<<<<<<<<<<<<<<<<<<<<<<<<<<<<<<<<<<<<<<<<<<<<<<<


                                            -------------------------------------------
                                                      TRANSPORT STEP NO.   21
                                            -------------------------------------------

 TOTAL ELAPSED TIME SINCE BEGINNING OF SIMULATION =   6.960000    D   
 .....................................................................

                     CUMULATIVE MASS BUDGETS AT END OF TRANSPORT STEP   21, TIME STEP    1, STRESS PERIOD    2
                     -----------------------------------------------------------------------------------------

                                                             IN                           OUT
                                                      ----------------             ----------------
                               CONSTANT CONCENTRATION:    10.24309                  -0.2698953    
                                        CONSTANT HEAD:    0.000000                  -0.1599322E-29
                                                WELLS:    0.000000                    0.000000    
                               MASS STOR (FLOW MODEL):    0.000000                    0.000000    
                                MASS STORAGE (SOLUTE):    29.68166                   -39.65484    
                            ---------------------------------------------------------------------------
                                              [TOTAL]:    39.92474     KG            -39.92474     KG  

                                                          NET (IN - OUT):   0.7629395E-05
                                                   DISCREPANCY (PERCENT):   0.1910944E-04
     1 CALLS TO GCG PACKAGE FOR TRANSPORT TIME STEP    22 IN FLOW TIME STEP     1 STRESS PERIOD     2
      3 TOTAL ITERATIONS



 >>>>>>>>>>>>>>>>>>>>>>>>>>>>>>>>>>>>>>>>>>>>>>>>>>>>>>>FOR COMPONENT NO. 01<<<<<<<<<<<<<<<<<<<<<<<<<<<<<<<<<<<<<<<<<<<<<<<<<<<<<<<


                                            -------------------------------------------
                                                      TRANSPORT STEP NO.   22
                                            -------------------------------------------

 TOTAL ELAPSED TIME SINCE BEGINNING OF SIMULATION =   7.250000    D   
 .....................................................................

                     CUMULATIVE MASS BUDGETS AT END OF TRANSPORT STEP   22, TIME STEP    1, STRESS PERIOD    2
                     -----------------------------------------------------------------------------------------

                                                             IN                           OUT
                                                      ----------------             ----------------
                               CONSTANT CONCENTRATION:    10.24309                  -0.2698953    
                                        CONSTANT HEAD:    0.000000                  -0.8189820E-29
                                                WELLS:    0.000000                    0.000000    
                               MASS STOR (FLOW MODEL):    0.000000                    0.000000    
                                MASS STORAGE (SOLUTE):    30.69318                   -40.66636    
                            ---------------------------------------------------------------------------
                                              [TOTAL]:    40.93626     KG            -40.93626     KG  

                                                          NET (IN - OUT):   0.7629395E-05
                                                   DISCREPANCY (PERCENT):   0.1863725E-04
     1 CALLS TO GCG PACKAGE FOR TRANSPORT TIME STEP    23 IN FLOW TIME STEP     1 STRESS PERIOD     2
      3 TOTAL ITERATIONS



 >>>>>>>>>>>>>>>>>>>>>>>>>>>>>>>>>>>>>>>>>>>>>>>>>>>>>>>FOR COMPONENT NO. 01<<<<<<<<<<<<<<<<<<<<<<<<<<<<<<<<<<<<<<<<<<<<<<<<<<<<<<<


                                            -------------------------------------------
                                                      TRANSPORT STEP NO.   23
                                            -------------------------------------------

 TOTAL ELAPSED TIME SINCE BEGINNING OF SIMULATION =   7.540000    D   
 .....................................................................

                     CUMULATIVE MASS BUDGETS AT END OF TRANSPORT STEP   23, TIME STEP    1, STRESS PERIOD    2
                     -----------------------------------------------------------------------------------------

                                                             IN                           OUT
                                                      ----------------             ----------------
                               CONSTANT CONCENTRATION:    10.24309                  -0.2698953    
                                        CONSTANT HEAD:    0.000000                  -0.4151453E-28
                                                WELLS:    0.000000                    0.000000    
                               MASS STOR (FLOW MODEL):    0.000000                    0.000000    
                                MASS STORAGE (SOLUTE):    31.69910                   -41.67229    
                            ---------------------------------------------------------------------------
                                              [TOTAL]:    41.94219     KG            -41.94218     KG  

                                                          NET (IN - OUT):   0.7629395E-05
                                                   DISCREPANCY (PERCENT):   0.1819027E-04
     1 CALLS TO GCG PACKAGE FOR TRANSPORT TIME STEP    24 IN FLOW TIME STEP     1 STRESS PERIOD     2
      3 TOTAL ITERATIONS



 >>>>>>>>>>>>>>>>>>>>>>>>>>>>>>>>>>>>>>>>>>>>>>>>>>>>>>>FOR COMPONENT NO. 01<<<<<<<<<<<<<<<<<<<<<<<<<<<<<<<<<<<<<<<<<<<<<<<<<<<<<<<


                                            -------------------------------------------
                                                      TRANSPORT STEP NO.   24
                                            -------------------------------------------

 TOTAL ELAPSED TIME SINCE BEGINNING OF SIMULATION =   7.830000    D   
 .....................................................................

                     CUMULATIVE MASS BUDGETS AT END OF TRANSPORT STEP   24, TIME STEP    1, STRESS PERIOD    2
                     -----------------------------------------------------------------------------------------

                                                             IN                           OUT
                                                      ----------------             ----------------
                               CONSTANT CONCENTRATION:    10.24309                  -0.2698953    
                                        CONSTANT HEAD:    0.000000                  -0.2085671E-27
                                                WELLS:    0.000000                    0.000000    
                               MASS STOR (FLOW MODEL):    0.000000                    0.000000    
                                MASS STORAGE (SOLUTE):    32.67687                   -42.65005    
                            ---------------------------------------------------------------------------
                                              [TOTAL]:    42.91996     KG            -42.91995     KG  

                                                          NET (IN - OUT):   0.1144409E-04
                                                   DISCREPANCY (PERCENT):   0.2666380E-04
     1 CALLS TO GCG PACKAGE FOR TRANSPORT TIME STEP    25 IN FLOW TIME STEP     1 STRESS PERIOD     2
      3 TOTAL ITERATIONS



 >>>>>>>>>>>>>>>>>>>>>>>>>>>>>>>>>>>>>>>>>>>>>>>>>>>>>>>FOR COMPONENT NO. 01<<<<<<<<<<<<<<<<<<<<<<<<<<<<<<<<<<<<<<<<<<<<<<<<<<<<<<<


                                            -------------------------------------------
                                                      TRANSPORT STEP NO.   25
                                            -------------------------------------------

 TOTAL ELAPSED TIME SINCE BEGINNING OF SIMULATION =   8.120000    D   
 .....................................................................

                     CUMULATIVE MASS BUDGETS AT END OF TRANSPORT STEP   25, TIME STEP    1, STRESS PERIOD    2
                     -----------------------------------------------------------------------------------------

                                                             IN                           OUT
                                                      ----------------             ----------------
                               CONSTANT CONCENTRATION:    10.24309                  -0.2698953    
                                        CONSTANT HEAD:    0.000000                  -0.1039681E-26
                                                WELLS:    0.000000                    0.000000    
                               MASS STOR (FLOW MODEL):    0.000000                    0.000000    
                                MASS STORAGE (SOLUTE):    33.65482                   -43.62800    
                            ---------------------------------------------------------------------------
                                              [TOTAL]:    43.89791     KG            -43.89790     KG  

                                                          NET (IN - OUT):   0.1525879E-04
                                                   DISCREPANCY (PERCENT):   0.3475972E-04
     1 CALLS TO GCG PACKAGE FOR TRANSPORT TIME STEP    26 IN FLOW TIME STEP     1 STRESS PERIOD     2
      3 TOTAL ITERATIONS



 >>>>>>>>>>>>>>>>>>>>>>>>>>>>>>>>>>>>>>>>>>>>>>>>>>>>>>>FOR COMPONENT NO. 01<<<<<<<<<<<<<<<<<<<<<<<<<<<<<<<<<<<<<<<<<<<<<<<<<<<<<<<


                                            -------------------------------------------
                                                      TRANSPORT STEP NO.   26
                                            -------------------------------------------

 TOTAL ELAPSED TIME SINCE BEGINNING OF SIMULATION =   8.410000    D   
 .....................................................................

                     CUMULATIVE MASS BUDGETS AT END OF TRANSPORT STEP   26, TIME STEP    1, STRESS PERIOD    2
                     -----------------------------------------------------------------------------------------

                                                             IN                           OUT
                                                      ----------------             ----------------
                               CONSTANT CONCENTRATION:    10.24309                  -0.2698953    
                                        CONSTANT HEAD:    0.000000                  -0.5147200E-26
                                                WELLS:    0.000000                    0.000000    
                               MASS STOR (FLOW MODEL):    0.000000                    0.000000    
                                MASS STORAGE (SOLUTE):    34.60809                   -44.58127    
                            ---------------------------------------------------------------------------
                                              [TOTAL]:    44.85118     KG            -44.85117     KG  

                                                          NET (IN - OUT):   0.1525879E-04
                                                   DISCREPANCY (PERCENT):   0.3402094E-04
     1 CALLS TO GCG PACKAGE FOR TRANSPORT TIME STEP    27 IN FLOW TIME STEP     1 STRESS PERIOD     2
      3 TOTAL ITERATIONS



 >>>>>>>>>>>>>>>>>>>>>>>>>>>>>>>>>>>>>>>>>>>>>>>>>>>>>>>FOR COMPONENT NO. 01<<<<<<<<<<<<<<<<<<<<<<<<<<<<<<<<<<<<<<<<<<<<<<<<<<<<<<<


                                            -------------------------------------------
                                                      TRANSPORT STEP NO.   27
                                            -------------------------------------------

 TOTAL ELAPSED TIME SINCE BEGINNING OF SIMULATION =   8.700000    D   
 .....................................................................

                     CUMULATIVE MASS BUDGETS AT END OF TRANSPORT STEP   27, TIME STEP    1, STRESS PERIOD    2
                     -----------------------------------------------------------------------------------------

                                                             IN                           OUT
                                                      ----------------             ----------------
                               CONSTANT CONCENTRATION:    10.24309                  -0.2698953    
                                        CONSTANT HEAD:    0.000000                  -0.2532498E-25
                                                WELLS:    0.000000                    0.000000    
                               MASS STOR (FLOW MODEL):    0.000000                    0.000000    
                                MASS STORAGE (SOLUTE):    35.56142                   -45.53461    
                            ---------------------------------------------------------------------------
                                              [TOTAL]:    45.80451     KG            -45.80450     KG  

                                                          NET (IN - OUT):   0.1144409E-04
                                                   DISCREPANCY (PERCENT):   0.2498464E-04
     1 CALLS TO GCG PACKAGE FOR TRANSPORT TIME STEP    28 IN FLOW TIME STEP     1 STRESS PERIOD     2
[...]
      2 TOTAL ITERATIONS



 >>>>>>>>>>>>>>>>>>>>>>>>>>>>>>>>>>>>>>>>>>>>>>>>>>>>>>>FOR COMPONENT NO. 01<<<<<<<<<<<<<<<<<<<<<<<<<<<<<<<<<<<<<<<<<<<<<<<<<<<<<<<


                                            -------------------------------------------
                                                      TRANSPORT STEP NO.   26
                                            -------------------------------------------

 TOTAL ELAPSED TIME SINCE BEGINNING OF SIMULATION =   26.39000    D   
 .....................................................................

                     CUMULATIVE MASS BUDGETS AT END OF TRANSPORT STEP   26, TIME STEP    1, STRESS PERIOD    3
                     -----------------------------------------------------------------------------------------

                                                             IN                           OUT
                                                      ----------------             ----------------
                               CONSTANT CONCENTRATION:    10.24309                  -0.2698953    
                                        CONSTANT HEAD:    0.000000                  -0.9024765E-02
                                                WELLS:    0.000000                    0.000000    
                               MASS STOR (FLOW MODEL):    0.000000                    0.000000    
                                MASS STORAGE (SOLUTE):    79.87181                   -89.83595    
                            ---------------------------------------------------------------------------
                                              [TOTAL]:    90.11490     KG            -90.11488     KG  

                                                          NET (IN - OUT):   0.2288818E-04
                                                   DISCREPANCY (PERCENT):   0.2539889E-04
     1 CALLS TO GCG PACKAGE FOR TRANSPORT TIME STEP    27 IN FLOW TIME STEP     1 STRESS PERIOD     3
      2 TOTAL ITERATIONS



 >>>>>>>>>>>>>>>>>>>>>>>>>>>>>>>>>>>>>>>>>>>>>>>>>>>>>>>FOR COMPONENT NO. 01<<<<<<<<<<<<<<<<<<<<<<<<<<<<<<<<<<<<<<<<<<<<<<<<<<<<<<<


                                            -------------------------------------------
                                                      TRANSPORT STEP NO.   27
                                            -------------------------------------------

 TOTAL ELAPSED TIME SINCE BEGINNING OF SIMULATION =   26.68000    D   
 .....................................................................

                     CUMULATIVE MASS BUDGETS AT END OF TRANSPORT STEP   27, TIME STEP    1, STRESS PERIOD    3
                     -----------------------------------------------------------------------------------------

                                                             IN                           OUT
                                                      ----------------             ----------------
                               CONSTANT CONCENTRATION:    10.24309                  -0.2698953    
                                        CONSTANT HEAD:    0.000000                  -0.9024765E-02
                                                WELLS:    0.000000                    0.000000    
                               MASS STOR (FLOW MODEL):    0.000000                    0.000000    
                                MASS STORAGE (SOLUTE):    80.46494                   -90.42908    
                            ---------------------------------------------------------------------------
                                              [TOTAL]:    90.70802     KG            -90.70800     KG  

                                                          NET (IN - OUT):   0.2288818E-04
                                                   DISCREPANCY (PERCENT):   0.2523282E-04
     1 CALLS TO GCG PACKAGE FOR TRANSPORT TIME STEP    28 IN FLOW TIME STEP     1 STRESS PERIOD     3
      2 TOTAL ITERATIONS



 >>>>>>>>>>>>>>>>>>>>>>>>>>>>>>>>>>>>>>>>>>>>>>>>>>>>>>>FOR COMPONENT NO. 01<<<<<<<<<<<<<<<<<<<<<<<<<<<<<<<<<<<<<<<<<<<<<<<<<<<<<<<


                                            -------------------------------------------
                                                      TRANSPORT STEP NO.   28
                                            -------------------------------------------

 TOTAL ELAPSED TIME SINCE BEGINNING OF SIMULATION =   26.97000    D   
 .....................................................................

                     CUMULATIVE MASS BUDGETS AT END OF TRANSPORT STEP   28, TIME STEP    1, STRESS PERIOD    3
                     -----------------------------------------------------------------------------------------

                                                             IN                           OUT
                                                      ----------------             ----------------
                               CONSTANT CONCENTRATION:    10.24309                  -0.2698953    
                                        CONSTANT HEAD:    0.000000                  -0.9024765E-02
                                                WELLS:    0.000000                    0.000000    
                               MASS STOR (FLOW MODEL):    0.000000                    0.000000    
                                MASS STORAGE (SOLUTE):    81.05345                   -91.01759    
                            ---------------------------------------------------------------------------
                                              [TOTAL]:    91.29654     KG            -91.29651     KG  

                                                          NET (IN - OUT):   0.3051758E-04
                                                   DISCREPANCY (PERCENT):   0.3342688E-04
     1 CALLS TO GCG PACKAGE FOR TRANSPORT TIME STEP    29 IN FLOW TIME STEP     1 STRESS PERIOD     3
      2 TOTAL ITERATIONS



 >>>>>>>>>>>>>>>>>>>>>>>>>>>>>>>>>>>>>>>>>>>>>>>>>>>>>>>FOR COMPONENT NO. 01<<<<<<<<<<<<<<<<<<<<<<<<<<<<<<<<<<<<<<<<<<<<<<<<<<<<<<<


                                            -------------------------------------------
                                                      TRANSPORT STEP NO.   29
                                            -------------------------------------------

 TOTAL ELAPSED TIME SINCE BEGINNING OF SIMULATION =   27.26000    D   
 .....................................................................

                     CUMULATIVE MASS BUDGETS AT END OF TRANSPORT STEP   29, TIME STEP    1, STRESS PERIOD    3
                     -----------------------------------------------------------------------------------------

                                                             IN                           OUT
                                                      ----------------             ----------------
                               CONSTANT CONCENTRATION:    10.24309                  -0.2698953    
                                        CONSTANT HEAD:    0.000000                  -0.9024765E-02
                                                WELLS:    0.000000                    0.000000    
                               MASS STOR (FLOW MODEL):    0.000000                    0.000000    
                                MASS STORAGE (SOLUTE):    81.64134                   -91.60548    
                            ---------------------------------------------------------------------------
                                              [TOTAL]:    91.88443     KG            -91.88440     KG  

                                                          NET (IN - OUT):   0.3051758E-04
                                                   DISCREPANCY (PERCENT):   0.3321301E-04
     1 CALLS TO GCG PACKAGE FOR TRANSPORT TIME STEP    30 IN FLOW TIME STEP     1 STRESS PERIOD     3
      2 TOTAL ITERATIONS



 >>>>>>>>>>>>>>>>>>>>>>>>>>>>>>>>>>>>>>>>>>>>>>>>>>>>>>>FOR COMPONENT NO. 01<<<<<<<<<<<<<<<<<<<<<<<<<<<<<<<<<<<<<<<<<<<<<<<<<<<<<<<


                                            -------------------------------------------
                                                      TRANSPORT STEP NO.   30
                                            -------------------------------------------

 TOTAL ELAPSED TIME SINCE BEGINNING OF SIMULATION =   27.55000    D   
 .....................................................................

                     CUMULATIVE MASS BUDGETS AT END OF TRANSPORT STEP   30, TIME STEP    1, STRESS PERIOD    3
                     -----------------------------------------------------------------------------------------

                                                             IN                           OUT
                                                      ----------------             ----------------
                               CONSTANT CONCENTRATION:    10.24309                  -0.2698953    
                                        CONSTANT HEAD:    0.000000                  -0.9024765E-02
                                                WELLS:    0.000000                    0.000000    
                               MASS STOR (FLOW MODEL):    0.000000                    0.000000    
                                MASS STORAGE (SOLUTE):    82.22505                   -92.18919    
                            ---------------------------------------------------------------------------
                                              [TOTAL]:    92.46814     KG            -92.46811     KG  

                                                          NET (IN - OUT):   0.3051758E-04
                                                   DISCREPANCY (PERCENT):   0.3300335E-04
     1 CALLS TO GCG PACKAGE FOR TRANSPORT TIME STEP    31 IN FLOW TIME STEP     1 STRESS PERIOD     3
      2 TOTAL ITERATIONS



 >>>>>>>>>>>>>>>>>>>>>>>>>>>>>>>>>>>>>>>>>>>>>>>>>>>>>>>FOR COMPONENT NO. 01<<<<<<<<<<<<<<<<<<<<<<<<<<<<<<<<<<<<<<<<<<<<<<<<<<<<<<<


                                            -------------------------------------------
                                                      TRANSPORT STEP NO.   31
                                            -------------------------------------------

 TOTAL ELAPSED TIME SINCE BEGINNING OF SIMULATION =   27.84000    D   
 .....................................................................

                     CUMULATIVE MASS BUDGETS AT END OF TRANSPORT STEP   31, TIME STEP    1, STRESS PERIOD    3
                     -----------------------------------------------------------------------------------------

                                                             IN                           OUT
                                                      ----------------             ----------------
                               CONSTANT CONCENTRATION:    10.24309                  -0.2698953    
                                        CONSTANT HEAD:    0.000000                  -0.9024765E-02
                                                WELLS:    0.000000                    0.000000    
                               MASS STOR (FLOW MODEL):    0.000000                    0.000000    
                                MASS STORAGE (SOLUTE):    82.80766                   -92.77180    
                            ---------------------------------------------------------------------------
                                              [TOTAL]:    93.05075     KG            -93.05072     KG  

                                                          NET (IN - OUT):   0.3051758E-04
                                                   DISCREPANCY (PERCENT):   0.3279671E-04
     1 CALLS TO GCG PACKAGE FOR TRANSPORT TIME STEP    32 IN FLOW TIME STEP     1 STRESS PERIOD     3
      2 TOTAL ITERATIONS



 >>>>>>>>>>>>>>>>>>>>>>>>>>>>>>>>>>>>>>>>>>>>>>>>>>>>>>>FOR COMPONENT NO. 01<<<<<<<<<<<<<<<<<<<<<<<<<<<<<<<<<<<<<<<<<<<<<<<<<<<<<<<


                                            -------------------------------------------
                                                      TRANSPORT STEP NO.   32
                                            -------------------------------------------

 TOTAL ELAPSED TIME SINCE BEGINNING OF SIMULATION =   28.13000    D   
 .....................................................................

                     CUMULATIVE MASS BUDGETS AT END OF TRANSPORT STEP   32, TIME STEP    1, STRESS PERIOD    3
                     -----------------------------------------------------------------------------------------

                                                             IN                           OUT
                                                      ----------------             ----------------
                               CONSTANT CONCENTRATION:    10.24309                  -0.2698953    
                                        CONSTANT HEAD:    0.000000                  -0.9024765E-02
                                                WELLS:    0.000000                    0.000000    
                               MASS STOR (FLOW MODEL):    0.000000                    0.000000    
                                MASS STORAGE (SOLUTE):    83.38647                   -93.35061    
                            ---------------------------------------------------------------------------
                                              [TOTAL]:    93.62956     KG            -93.62953     KG  

                                                          NET (IN - OUT):   0.3051758E-04
                                                   DISCREPANCY (PERCENT):   0.3259396E-04
     1 CALLS TO GCG PACKAGE FOR TRANSPORT TIME STEP    33 IN FLOW TIME STEP     1 STRESS PERIOD     3
      2 TOTAL ITERATIONS



 >>>>>>>>>>>>>>>>>>>>>>>>>>>>>>>>>>>>>>>>>>>>>>>>>>>>>>>FOR COMPONENT NO. 01<<<<<<<<<<<<<<<<<<<<<<<<<<<<<<<<<<<<<<<<<<<<<<<<<<<<<<<


                                            -------------------------------------------
                                                      TRANSPORT STEP NO.   33
                                            -------------------------------------------

 TOTAL ELAPSED TIME SINCE BEGINNING OF SIMULATION =   28.42000    D   
 .....................................................................

                     CUMULATIVE MASS BUDGETS AT END OF TRANSPORT STEP   33, TIME STEP    1, STRESS PERIOD    3
                     -----------------------------------------------------------------------------------------

                                                             IN                           OUT
                                                      ----------------             ----------------
                               CONSTANT CONCENTRATION:    10.24309                  -0.2698953    
                                        CONSTANT HEAD:    0.000000                  -0.9024765E-02
                                                WELLS:    0.000000                    0.000000    
                               MASS STOR (FLOW MODEL):    0.000000                    0.000000    
                                MASS STORAGE (SOLUTE):    83.96379                   -93.92793    
                            ---------------------------------------------------------------------------
                                              [TOTAL]:    94.20688     KG            -94.20685     KG  

                                                          NET (IN - OUT):   0.3051758E-04
                                                   DISCREPANCY (PERCENT):   0.3239422E-04
     1 CALLS TO GCG PACKAGE FOR TRANSPORT TIME STEP    34 IN FLOW TIME STEP     1 STRESS PERIOD     3
      2 TOTAL ITERATIONS



 >>>>>>>>>>>>>>>>>>>>>>>>>>>>>>>>>>>>>>>>>>>>>>>>>>>>>>>FOR COMPONENT NO. 01<<<<<<<<<<<<<<<<<<<<<<<<<<<<<<<<<<<<<<<<<<<<<<<<<<<<<<<


                                            -------------------------------------------
                                                      TRANSPORT STEP NO.   34
                                            -------------------------------------------

 TOTAL ELAPSED TIME SINCE BEGINNING OF SIMULATION =   28.71000    D   
 .....................................................................

                     CUMULATIVE MASS BUDGETS AT END OF TRANSPORT STEP   34, TIME STEP    1, STRESS PERIOD    3
                     -----------------------------------------------------------------------------------------

                                                             IN                           OUT
                                                      ----------------             ----------------
                               CONSTANT CONCENTRATION:    10.24309                  -0.2698953    
                                        CONSTANT HEAD:    0.000000                  -0.9024765E-02
                                                WELLS:    0.000000                    0.000000    
                               MASS STOR (FLOW MODEL):    0.000000                    0.000000    
                                MASS STORAGE (SOLUTE):    84.53749                   -94.50163    
                            ---------------------------------------------------------------------------
                                              [TOTAL]:    94.78058     KG            -94.78055     KG  

                                                          NET (IN - OUT):   0.3051758E-04
                                                   DISCREPANCY (PERCENT):   0.3219814E-04
     1 CALLS TO GCG PACKAGE FOR TRANSPORT TIME STEP    35 IN FLOW TIME STEP     1 STRESS PERIOD     3
      2 TOTAL ITERATIONS
  MAXIMUM CONCENTRATION CHANGES FOR EACH ITERATION:
  MAX. CHANGE LAYER,ROW,COL MAX. CHANGE LAYER,ROW,COL MAX. CHANGE LAYER,ROW,COL MAX. CHANGE LAYER,ROW,COL MAX. CHANGE LAYER,ROW,COL
 ------------------------------------------------------------------------------------------------------------------------------------
   0.4040E-02 (  1,  2, 15)  0.4172E-06 (  1,  1, 18)



 >>>>>>>>>>>>>>>>>>>>>>>>>>>>>>>>>>>>>>>>>>>>>>>>>>>>>>>FOR COMPONENT NO. 01<<<<<<<<<<<<<<<<<<<<<<<<<<<<<<<<<<<<<<<<<<<<<<<<<<<<<<<


                                            -------------------------------------------
                                                      TRANSPORT STEP NO.   35
                                            -------------------------------------------

 TOTAL ELAPSED TIME SINCE BEGINNING OF SIMULATION =   29.00000    D   
 .....................................................................

                     CUMULATIVE MASS BUDGETS AT END OF TRANSPORT STEP   35, TIME STEP    1, STRESS PERIOD    3
                     -----------------------------------------------------------------------------------------

                                                             IN                           OUT
                                                      ----------------             ----------------
                               CONSTANT CONCENTRATION:    10.24309                  -0.2698953    
                                        CONSTANT HEAD:    0.000000                  -0.9024765E-02
                                                WELLS:    0.000000                    0.000000    
                               MASS STOR (FLOW MODEL):    0.000000                    0.000000    
                                MASS STORAGE (SOLUTE):    85.10944                   -95.07357    
                            ---------------------------------------------------------------------------
                                              [TOTAL]:    95.35252     KG            -95.35249     KG  

                                                          NET (IN - OUT):   0.3051758E-04
                                                   DISCREPANCY (PERCENT):   0.3200501E-04
  ----- 
 | M T |
 | 3 D | END OF MODEL OUTPUT
  ----- 
