                                   MODFLOW 6
                U.S. GEOLOGICAL SURVEY MODULAR HYDROLOGIC MODEL
                            VERSION 6.6.1 02/10/2025

   MODFLOW 6 compiled Feb 14 2025 13:40:10 with Intel(R) Fortran Intel(R) 64
   Compiler Classic for applications running on Intel(R) 64, Version 2021.7.0
                             Build 20220726_000000

This software has been approved for release by the U.S. Geological 
Survey (USGS). Although the software has been subjected to rigorous 
review, the USGS reserves the right to update the software as needed 
pursuant to further analysis and review. No warranty, expressed or 
implied, is made by the USGS or the U.S. Government as to the 
functionality of the software and related material nor shall the 
fact of release constitute any such warranty. Furthermore, the 
software is released on condition that neither the USGS nor the U.S. 
Government shall be held liable for any damages resulting from its 
authorized or unauthorized use. Also refer to the USGS Water 
Resources Software User Rights Notice for complete use, copyright, 
and distribution information.


As a work of the United States Government, this USGS product is 
in the public domain within the United States. You can copy, 
modify, distribute, and perform the work, even for commercial 
purposes, all without asking permission. Additionally, USGS 
waives copyright and related rights in the work worldwide 
through CC0 1.0 Universal Public Domain Dedication 
(https://creativecommons.org/publicdomain/zero/1.0/).

The following GNU Lesser General Public License (LGPL) libraries
are used in this USGS product:

    SPARSKIT version 2.0
      ilut, luson, and qsplit 
      (https://www-users.cse.umn.edu/~saad/software/SPARSKIT/)

    RCM - Reverse Cuthill McKee Ordering
      (https://people.math.sc.edu/Burkardt/f_src/rcm/rcm.html)

    BLAS - Basic Linear Algebra Subprograms Level 1
      (https://people.math.sc.edu/Burkardt/f_src/blas1_d/blas1_d.html)

    SPARSEKIT - Sparse Matrix Utility Package
      amux, dperm, dvperm, rperm, and cperm
      (https://people.sc.fsu.edu/~jburkardt/f77_src/sparsekit/sparsekit.html)

The following BSD-3 License libraries are used in this USGS product:

    Modern Fortran DAG Library
      Copyright (c) 2018, Jacob Williams
      All rights reserved.
      (https://github.com/jacobwilliams/daglib)

MODFLOW 6 compiler options: /O2 /heap-arrays:0 /fpe:0 /traceback /nologo /fpp
/c /module:win64\mod_mf6\ /object:win64\obj_mf6\

System command used to initiate simulation:
C:\Users\gross.DESKTOP-AIRQM2M\anaconda3\Scripts\mf6.exe

MODFLOW was compiled using uniform precision.

Real Variables
  KIND: 8
  TINY (smallest non-zero value):    2.225074-308
  HUGE (largest value):    1.797693+308
  PRECISION: 15
  SIZE IN BITS: 64

Integer Variables
  KIND: 4
  HUGE (largest value): 2147483647
  SIZE IN BITS: 32

Long Integer Variables
  KIND: 8
  HUGE (largest value): 9223372036854775807
  SIZE IN BITS: 64

Logical Variables
  KIND: 4
  SIZE IN BITS: 32
 

 OPENED mfsim.nam
 FILE TYPE:NAM6               UNIT 1001   STATUS:OLD                 
 FORMAT:FORMATTED              ACCESS:SEQUENTIAL          
 ACTION:READ                

 # File generated by Flopy version 3.9.1 on 04/29/2025 at 20:50:43.

 OPENED 09_nwt_p03.tdis
 FILE TYPE:TDIS6              UNIT 1002   STATUS:OLD                 
 FORMAT:FORMATTED              ACCESS:SEQUENTIAL          
 ACTION:READ                

 # File generated by Flopy version 3.9.1 on 04/29/2025 at 20:50:43.

 OPENED 09_nwt_p03.nam
 FILE TYPE:GWF6               UNIT 1003   STATUS:OLD                 
 FORMAT:FORMATTED              ACCESS:SEQUENTIAL          
 ACTION:READ                

 # File generated by Flopy version 3.9.1 on 04/29/2025 at 20:50:43.

 OPENED 09_nwt_p03.dis
 FILE TYPE:DIS6               UNIT 1004   STATUS:OLD                 
 FORMAT:FORMATTED              ACCESS:SEQUENTIAL          
 ACTION:READ                

 # File generated by Flopy version 3.9.1 on 04/29/2025 at 20:50:43.

 OPENED 09_nwt_p03.npf
 FILE TYPE:NPF6               UNIT 1005   STATUS:OLD                 
 FORMAT:FORMATTED              ACCESS:SEQUENTIAL          
 ACTION:READ                

 # File generated by Flopy version 3.9.1 on 04/29/2025 at 20:50:43.

 OPENED 09_nwt_p03.ic
 FILE TYPE:IC6                UNIT 1006   STATUS:OLD                 
 FORMAT:FORMATTED              ACCESS:SEQUENTIAL          
 ACTION:READ                

 # File generated by Flopy version 3.9.1 on 04/29/2025 at 20:50:43.

 OPENED 09_nwt_p03.oc
 FILE TYPE:OC6       UNIT 1007   STATUS:OLD                 
 FORMAT:FORMATTED              ACCESS:SEQUENTIAL          
 ACTION:READ                


 OPENED 09_nwt_p03.rcha
 FILE TYPE:RCH6               UNIT 1009   STATUS:OLD                 
 FORMAT:FORMATTED              ACCESS:SEQUENTIAL          
 ACTION:READ                

 # File generated by Flopy version 3.9.1 on 04/29/2025 at 20:50:43.

 OPENED 09_nwt_p03.chd
 FILE TYPE:CHD6               UNIT 1010   STATUS:OLD                 
 FORMAT:FORMATTED              ACCESS:SEQUENTIAL          
 ACTION:READ                

 # File generated by Flopy version 3.9.1 on 04/29/2025 at 20:50:43.

 READING SIMULATION OPTIONS
    MAXIMUM NUMBER OF ERRORS THAT WILL BE STORED IS 1000
 END OF SIMULATION OPTIONS

 READING SIMULATION TIMING

 TDIS -- TEMPORAL DISCRETIZATION PACKAGE,
 VERSION 1 : 11/13/2014 - INPUT READ FROM MEMPATH: __INPUT__/SIM/TDIS                                
 PROCESSING TDIS OPTIONS
    SIMULATION TIME UNIT IS DAYS
 END OF TDIS OPTIONS
 PROCESSING TDIS DIMENSIONS
    1 STRESS PERIOD(S) IN SIMULATION
 END OF TDIS DIMENSIONS
 PROCESSING TDIS PERIODDATA


 STRESS PERIOD     LENGTH       TIME STEPS     MULTIPLIER FOR DELT
 ----------------------------------------------------------------------------
        1         365.0000          1                    1.000
 END OF TDIS PERIODDATA
 END OF SIMULATION TIMING

 READING SIMULATION MODELS
    GWF6 model 1 will be created
 END OF SIMULATION MODELS

 READING SIMULATION EXCHANGES
 END OF SIMULATION EXCHANGES

 READING SOLUTIONGROUP

 Creating solution: SLN_1           

 OPENED 09_nwt_p03.ims
 FILE TYPE:IMS   UNIT 1012   STATUS:OLD                 
 FORMAT:FORMATTED              ACCESS:SEQUENTIAL          
 ACTION:READ                

 END OF SOLUTIONGROUP

PROCESSING MODEL CONNECTIONS

 IMS -- ITERATIVE MODEL SOLUTION PACKAGE, VERSION 6, 4/28/2017
         INPUT READ FROM UNIT 1012
 # File generated by Flopy version 3.9.1 on 04/29/2025 at 20:50:43.

 PROCESSING IMS OPTIONS
 SIMPLE OPTION:
 DEFAULT SOLVER INPUT VALUES FOR FAST SOLUTIONS
 END OF IMS OPTIONS

 PROCESSING IMS NONLINEAR
 END OF IMS NONLINEAR DATA
 ***UNDER-RELAXATION WILL NOT BE USED***
 

 PROCESSING LINEAR DATA
 END OF LINEAR DATA
 ***IMS LINEAR SOLVER WILL BE USED***

 IMSLINEAR -- UNSTRUCTURED LINEAR SOLUTION PACKAGE, VERSION 8, 04/28/2017
 An asymmetric matrix will be solved

 OUTER ITERATION CONVERGENCE CRITERION    (DVCLOSE) =    0.100000E-08
 MAXIMUM NUMBER OF OUTER ITERATIONS        (MXITER) = 500
 SOLVER PRINTOUT INDEX                     (IPRIMS) = 2
 NONLINEAR ITERATION METHOD            (NONLINMETH) = 0
 LINEAR SOLUTION METHOD                   (LINMETH) = 1

       SOLUTION BY THE BICONJUGATE-GRADIENT STABILIZED METHOD
 ------------------------------------------------------------------
 MAXIMUM OF 500 CALLS OF SOLUTION ROUTINE
 MAXIMUM OF 500 INTERNAL ITERATIONS PER CALL TO SOLUTION ROUTINE
 LINEAR ACCELERATION METHOD            = BCGS      
 MATRIX PRECONDITIONING TYPE           = INCOMPLETE LU       
 MATRIX SCALING APPROACH               = NO SCALING          
 MATRIX REORDERING APPROACH            = ORIGINAL ORDERING        
 NUMBER OF ORTHOGONALIZATIONS          = 0
 HEAD CHANGE CRITERION FOR CLOSURE     =    0.10000E-08
 RESIDUAL CHANGE CRITERION FOR CLOSURE =    0.10000E-05
 RESIDUAL CONVERGENCE OPTION           = 0
 RESIDUAL CONVERGENCE NORM             = INFINITY NORM   
 RELAXATION FACTOR                     =    0.00000E+00



 
    Solving:  Stress period:     1    Time step:     1
 
1
 STRESS PERIOD NO. 1, LENGTH =   365.0000    
 ------------------------------------------
 NUMBER OF TIME STEPS = 1
 MULTIPLIER FOR DELT =     1.000
 INITIAL TIME STEP SIZE =   365.0000    



 PSEUDO-TRANSIENT CONTINUATION WILL BE APPLIED TO MODEL 1 ("09_NWT_P03") DURING THIS TIME STEP

 SLN_1 OUTER ITERATION SUMMARY
 ----------------------------------------------------------------------------------------------------------
                                OUTER      INNER                    STEP   MAXIMUM CHANGE MODEL-(CELLID) OR
 OUTER ITERATION STEP       ITERATION  ITERATION  MAXIMUM CHANGE SUCCESS             MODEL-PACKAGE-(NUMBER)
 ----------------------------------------------------------------------------------------------------------
 Model                              1        110      -18.444565                             1_GWF-(1,1,80)
 Model                              2         93       9.3163237                              1_GWF-(1,1,1)
 Model                              3         98      -2.1559306                            1_GWF-(1,27,71)
 Model                              4         82     -0.52288305                            1_GWF-(1,28,71)
 Model                              5         80 -5.35236917E-02                            1_GWF-(1,74,78)
 Model                              6         64 -1.87266935E-03                            1_GWF-(1,80,52)
 Model                              7         12  2.48431282E-05                            1_GWF-(1,78,57)
 Model                              8          3  1.55696469E-08                            1_GWF-(1,77,49)
 Model                              9          3 -8.18715762E-09                            1_GWF-(1,55,79)
 Model                             10          9 -1.10380114E-08                            1_GWF-(1,67,71)
 Model                             11          7 -5.02155473E-09                            1_GWF-(1,57,80)
 Model                             12          3 -4.23396074E-09                            1_GWF-(1,69,70)
 Model                             13          3 -4.07126066E-09                            1_GWF-(1,72,65)
 Model                             14          3 -3.67892738E-09                            1_GWF-(1,76,59)
 Model                             15          3  3.05758618E-09                            1_GWF-(1,76,59)
 Model                             16          3 -3.14899040E-09                            1_GWF-(1,70,70)
 Model                             17          3  2.80581958E-09                            1_GWF-(1,70,70)
 Model                             18          3 -3.16373416E-09                            1_GWF-(1,70,70)
 Model                             19          1  9.53875201E-10       *                    1_GWF-(1,70,69)
 ----------------------------------------------------------------------------------------------------------


 19 CALLS TO NUMERICAL SOLUTION IN TIME STEP 1 STRESS PERIOD 1
 583 TOTAL ITERATIONS

 SLN_1 INNER ITERATION SUMMARY
 --------------------------------------------------------------------------------------------------------------------------------------
      TOTAL      OUTER      INNER                                                            MAXIMUM                                   
  ITERATION  ITERATION  ITERATION  MAXIMUM CHANGE      MAXIMUM CHANGE MODEL-(CELLID)        RESIDUAL    MAXIMUM RESIDUAL MODEL-(CELLID)
 --------------------------------------------------------------------------------------------------------------------------------------
          1          1          1      -7.0731613                    1_GWF-(1,80,80)       14.585216                    1_GWF-(1,78,79)
          2          1          2       10.152457                    1_GWF-(1,38,80)      -9.8792347                    1_GWF-(1,77,79)
          3          1          3       3.2849148                    1_GWF-(1,36,80)      -8.3962413                     1_GWF-(1,2,79)
          4          1          4       1.3314731                    1_GWF-(1,35,80)       3.7249542                     1_GWF-(1,79,2)
          5          1          5       1.2617282                    1_GWF-(1,35,80)       2.7420879                     1_GWF-(1,79,2)
          6          1          6       1.6369291                    1_GWF-(1,36,80)      -2.7209675                      1_GWF-(1,1,2)
          7          1          7      -1.9609745                    1_GWF-(1,14,78)      -3.5665556                      1_GWF-(1,1,2)
          8          1          8       1.5572989                      1_GWF-(1,1,1)      -2.5620789                      1_GWF-(1,1,2)
          9          1          9       1.2024407                      1_GWF-(1,1,1)      -2.8351273                      1_GWF-(1,1,2)
         10          1         10      0.62794849                      1_GWF-(1,1,1)      -2.7543189                      1_GWF-(1,1,2)
         11          1         11     -0.38170127                    1_GWF-(1,26,80)      -2.4334855                      1_GWF-(1,2,1)
         12          1         12      0.25875613                    1_GWF-(1,28,80)      -1.0255263                      1_GWF-(1,2,2)
         13          1         13      0.75967326                    1_GWF-(1,33,80)      -7.1699289                      1_GWF-(1,2,1)
         14          1         14       2.2204128                    1_GWF-(1,30,80)      -1.8923550                      1_GWF-(1,2,1)
         15          1         15       2.6490553                    1_GWF-(1,34,80)      -9.7248384                      1_GWF-(1,2,1)
         16          1         16       7.0086066                    1_GWF-(1,33,80)      -2.6651118                      1_GWF-(1,2,1)
         17          1         17       16.555276                    1_GWF-(1,35,80)      -26.142895                      1_GWF-(1,2,1)
         18          1         18       35.595343                    1_GWF-(1,34,80)      -8.2893610                      1_GWF-(1,2,1)
         19          1         19       98.228773                    1_GWF-(1,34,80)      -76.500000                      1_GWF-(1,2,1)
         20          1         20       1851.2325                    1_GWF-(1,34,80)      -261.84147                      1_GWF-(1,2,1)
         21          1         21      -3179.8938                    1_GWF-(1,34,80)       584.65870                      1_GWF-(1,2,1)
         22          1         22       652.39479                    1_GWF-(1,34,80)      -42.086626                    1_GWF-(1,34,79)
         23          1         23       25923.970                    1_GWF-(1,34,80)      -7006.6701                      1_GWF-(1,1,2)
         24          1         24      -27003.602                    1_GWF-(1,34,80)       101.11997                      1_GWF-(1,2,2)
         25          1         25       1562.9120                    1_GWF-(1,34,80)       2.7982687                      1_GWF-(1,2,1)
         26          1         26       17.195083                    1_GWF-(1,33,80)      -3.1651627                      1_GWF-(1,1,2)
         27          1         27       4.5716657                    1_GWF-(1,34,80)      -3.2580478                      1_GWF-(1,2,1)
         28          1         28      -21.452010                    1_GWF-(1,34,80)      0.78620284                      1_GWF-(1,2,1)
         29          1         29       3.5769790                    1_GWF-(1,34,80)       3.0720909                      1_GWF-(1,2,1)
         30          1         30     -0.14379559                      1_GWF-(1,2,1)      0.50286166                      1_GWF-(1,2,2)
         31          1         31      0.16987829                      1_GWF-(1,1,1)      0.59970513                      1_GWF-(1,2,2)
         32          1         32     -0.71827850                      1_GWF-(1,1,1)      0.71068783                      1_GWF-(1,2,1)
         33          1         33  5.25341658E-02                    1_GWF-(1,36,80)      0.50747835                      1_GWF-(1,2,1)
         34          1         34      0.24460245                    1_GWF-(1,34,80)      0.55050272                      1_GWF-(1,2,1)
         35          1         35      0.86416896                    1_GWF-(1,34,80)      0.46242556                      1_GWF-(1,2,1)
         36          1         36       1.1636396                    1_GWF-(1,34,80)      0.36802325                      1_GWF-(1,2,1)
         37          1         37      0.81445468                    1_GWF-(1,34,80)      0.25468593                      1_GWF-(1,2,1)
         38          1         38      0.41213641                    1_GWF-(1,34,80)      0.22733470                      1_GWF-(1,2,1)
         39          1         39      0.13018004                    1_GWF-(1,33,80)      0.20266879                      1_GWF-(1,2,1)
         40          1         40     -0.11714585                      1_GWF-(1,1,1)      0.24273315                      1_GWF-(1,1,3)
         41          1         41 -1.08424175E-02                      1_GWF-(1,3,1)      0.18500057                      1_GWF-(1,2,2)
         42          1         42  2.94399413E-02                      1_GWF-(1,1,1)      0.21854224                      1_GWF-(1,1,3)
         43          1         43      0.22057109                      1_GWF-(1,1,1)      0.17958984                      1_GWF-(1,2,4)
         44          1         44      0.21421814                      1_GWF-(1,1,1)      0.21428987                      1_GWF-(1,1,3)
         45          1         45      0.25347702                      1_GWF-(1,1,1)      0.19914819                      1_GWF-(1,2,4)
         46          1         46      0.60659691                      1_GWF-(1,1,1)      0.22315633                      1_GWF-(1,2,4)
         47          1         47       2.6977430                      1_GWF-(1,1,1)      0.30925707                      1_GWF-(1,2,4)
         48          1         48      -16.219028                      1_GWF-(1,1,1)     -0.21544351                      1_GWF-(1,2,4)
         49          1         49       7.9908797                      1_GWF-(1,1,1)      0.19849667                      1_GWF-(1,2,2)
         50          1         50      0.40085172                      1_GWF-(1,1,1)      0.13106334                      1_GWF-(1,2,2)
         51          1         51  1.25527521E-02                    1_GWF-(1,33,80)  7.63616307E-02                      1_GWF-(1,1,3)
         52          1         52       1.5617330                      1_GWF-(1,1,1)      0.10822220                      1_GWF-(1,2,4)
         53          1         53      -2.2612949                      1_GWF-(1,1,1)      0.15262972                      1_GWF-(1,2,2)
         54          1         54  3.67562339E-03                      1_GWF-(1,3,1)  2.30221878E-02                      1_GWF-(1,2,4)
         55          1         55  2.78736547E-02                      1_GWF-(1,1,1)  2.37707665E-02                      1_GWF-(1,2,4)
         56          1         56      0.18196613                      1_GWF-(1,1,1)  3.46439093E-02                      1_GWF-(1,1,3)
         57          1         57      0.37055952                      1_GWF-(1,1,1)  4.39429492E-02                      1_GWF-(1,2,4)
         58          1         58       3.0601747                      1_GWF-(1,1,1)      0.14583937                      1_GWF-(1,2,4)
         59          1         59      -4.6883158                      1_GWF-(1,1,1) -1.12946773E-02                      1_GWF-(1,2,3)
         60          1         60      0.24309073                      1_GWF-(1,1,1) -4.07634776E-03                      1_GWF-(1,1,3)
         61          1         61  2.54663870E-02                      1_GWF-(1,1,1) -2.81042322E-03                      1_GWF-(1,2,3)
         62          1         62  1.23787149E-02                      1_GWF-(1,1,1) -2.13052546E-03                      1_GWF-(1,2,2)
         63          1         63  9.09764187E-03                      1_GWF-(1,1,1) -1.71896148E-03                      1_GWF-(1,2,2)
         64          1         64  2.49609547E-04                      1_GWF-(1,2,2) -1.52198711E-03                      1_GWF-(1,1,3)
         65          1         65 -4.83400781E-03                      1_GWF-(1,1,1) -1.54939330E-03                      1_GWF-(1,2,2)
         66          1         66  4.56031950E-03                      1_GWF-(1,1,1) -1.74817402E-03                      1_GWF-(1,2,2)
         67          1         67  1.84760765E-04                      1_GWF-(1,1,2) -8.71437375E-04                      1_GWF-(1,2,2)
         68          1         68  2.22716465E-03                      1_GWF-(1,1,1) -1.49974248E-03                      1_GWF-(1,2,3)
         69          1         69  4.62348352E-04                      1_GWF-(1,1,1) -9.20495231E-04                      1_GWF-(1,2,2)
         70          1         70  5.28908804E-03                      1_GWF-(1,1,1) -1.09412871E-03                      1_GWF-(1,2,3)
         71          1         71  8.90881181E-03                      1_GWF-(1,1,1) -4.50965997E-04                      1_GWF-(1,2,3)
         72          1         72  4.79542836E-03                      1_GWF-(1,1,1) -4.46825043E-04                      1_GWF-(1,2,3)
         73          1         73  2.69544424E-04                      1_GWF-(1,1,1) -3.74129622E-04                      1_GWF-(1,3,2)
         74          1         74 -5.92277381E-05                     1_GWF-(1,80,3) -4.24053835E-04                      1_GWF-(1,2,3)
         75          1         75  4.12770810E-04                      1_GWF-(1,1,1) -2.47378239E-04                      1_GWF-(1,2,3)
         76          1         76  2.56966009E-03                      1_GWF-(1,1,1) -1.03642472E-03                      1_GWF-(1,2,3)
         77          1         77 -1.26461109E-04                      1_GWF-(1,1,1) -2.04426880E-04                      1_GWF-(1,2,2)
         78          1         78  3.24024391E-04                      1_GWF-(1,1,1) -1.67946054E-04                      1_GWF-(1,3,2)
         79          1         79  1.88261156E-03                      1_GWF-(1,1,1) -1.17128241E-04                      1_GWF-(1,3,2)
         80          1         80  1.10532837E-03                      1_GWF-(1,1,1) -6.87351488E-05                      1_GWF-(1,2,2)
         81          1         81  1.09186009E-03                      1_GWF-(1,1,1) -5.88854736E-05                      1_GWF-(1,2,2)
         82          1         82 -1.87969715E-04                      1_GWF-(1,1,1) -3.96018992E-05                      1_GWF-(1,2,2)
         83          1         83  6.32797422E-05                      1_GWF-(1,1,1) -4.33983722E-05                      1_GWF-(1,3,2)
         84          1         84  1.34658231E-02                      1_GWF-(1,1,1)  4.26939370E-04                      1_GWF-(1,3,2)
         85          1         85 -1.30066998E-02                      1_GWF-(1,1,1) -2.19679410E-05                      1_GWF-(1,3,2)
         86          1         86  7.81724838E-05                      1_GWF-(1,1,1) -2.42492507E-05                      1_GWF-(1,3,2)
         87          1         87  5.80483060E-04                      1_GWF-(1,1,1)  4.07537218E-06                    1_GWF-(1,41,79)
         88          1         88  4.94587807E-05                      1_GWF-(1,1,1) -5.31158846E-06                      1_GWF-(1,2,3)
         89          1         89 -4.92474895E-05                      1_GWF-(1,1,1) -3.04138369E-06                      1_GWF-(1,2,2)
         90          1         90  3.62709350E-05                      1_GWF-(1,1,1) -1.81080184E-06                      1_GWF-(1,2,2)
         91          1         91  4.22325834E-05                      1_GWF-(1,1,1) -2.18515735E-06                      1_GWF-(1,2,2)
         92          1         92  2.11524486E-05                      1_GWF-(1,1,1)  5.84371957E-07                      1_GWF-(1,3,2)
         93          1         93 -5.93966226E-06                      1_GWF-(1,1,1)  1.32252177E-06                     1_GWF-(1,79,2)
         94          1         94  9.22423513E-08                      1_GWF-(1,2,2)  5.57926765E-07                      1_GWF-(1,2,2)
         95          1         95 -9.61436459E-05                      1_GWF-(1,1,1) -4.18966960E-06                      1_GWF-(1,2,2)
         96          1         96  8.86953480E-05                      1_GWF-(1,1,1) -5.08273150E-07                      1_GWF-(1,4,2)
         97          1         97  1.72451593E-06                      1_GWF-(1,1,1) -1.14209797E-07                      1_GWF-(1,3,2)
         98          1         98 -1.59218324E-07                      1_GWF-(1,1,1) -1.29720396E-07                      1_GWF-(1,2,2)
         99          1         99  5.60213246E-07                      1_GWF-(1,1,1) -1.06429470E-07                      1_GWF-(1,3,2)
        100          1        100  1.20505456E-06                      1_GWF-(1,1,1) -8.44649007E-08                      1_GWF-(1,4,2)
        101          1        101  1.65543807E-06                      1_GWF-(1,1,1)  1.02006548E-08                    1_GWF-(1,58,79)
        102          1        102  2.62343820E-06                      1_GWF-(1,1,1)  8.01455758E-08                      1_GWF-(1,3,2)
        103          1        103 -2.12119753E-06                      1_GWF-(1,1,1)  1.73665802E-08                      1_GWF-(1,2,2)
        104          1        104  3.06497957E-08                      1_GWF-(1,1,1)  1.80786593E-08                      1_GWF-(1,2,2)
        105          1        105 -5.24124300E-08                      1_GWF-(1,1,1)  1.62826959E-08                      1_GWF-(1,2,2)
        106          1        106  5.29956989E-08                      1_GWF-(1,1,1)  1.84509139E-08                      1_GWF-(1,2,2)
        107          1        107 -1.60230685E-07                      1_GWF-(1,1,1)  1.16785423E-08                      1_GWF-(1,2,2)
        108          1        108 -1.53647671E-07                      1_GWF-(1,1,1)  5.00994890E-09                      1_GWF-(1,2,2)
        109          1        109  3.35702616E-08                      1_GWF-(1,1,1)  6.43171895E-09                      1_GWF-(1,2,2)
        110          1        110 -5.52697691E-10                      1_GWF-(1,1,1)  6.40052589E-09                      1_GWF-(1,2,2)
        111          2          1      -4.2533382                    1_GWF-(1,80,80)      -3.1193710                    1_GWF-(1,79,80)
        112          2          2      -2.9439976                    1_GWF-(1,76,78)      -2.4419207                    1_GWF-(1,77,79)
        113          2          3      -1.2745201                    1_GWF-(1,13,74)       2.3530818                     1_GWF-(1,79,2)
        114          2          4     -0.87195289                    1_GWF-(1,17,76)       2.0117882                     1_GWF-(1,79,2)
        115          2          5     -0.74621071                    1_GWF-(1,20,78)       1.0462113                     1_GWF-(1,79,2)
        116          2          6      -1.2731030                    1_GWF-(1,22,79)       1.6822415                     1_GWF-(1,79,2)
        117          2          7  8.84298313E-02                     1_GWF-(1,80,1)      0.68610296                    1_GWF-(1,27,79)
        118          2          8      0.61476921                    1_GWF-(1,26,80)      -1.0675909                     1_GWF-(1,79,2)
        119          2          9       2.0486910                    1_GWF-(1,26,80)       1.1133044                    1_GWF-(1,27,79)
        120          2         10      0.74715520                    1_GWF-(1,28,80)       1.2253734                    1_GWF-(1,27,79)
        121          2         11      -2.9526817                    1_GWF-(1,27,80)      0.78636489                    1_GWF-(1,27,79)
        122          2         12     -0.62618236                    1_GWF-(1,23,79)      -1.6022386                     1_GWF-(1,79,2)
        123          2         13      -92.979504                    1_GWF-(1,27,80)      -12.979492                    1_GWF-(1,29,79)
        124          2         14       82.238088                    1_GWF-(1,27,80)       4.4879393                     1_GWF-(1,79,2)
        125          2         15       1.4343248                    1_GWF-(1,29,80)     -0.56144596                    1_GWF-(1,33,79)
        126          2         16       2.2998989                    1_GWF-(1,29,80)      0.37837855                      1_GWF-(1,2,1)
        127          2         17       1.3921719                    1_GWF-(1,29,80)      0.14319932                      1_GWF-(1,2,1)
        128          2         18      0.35652852                    1_GWF-(1,29,80)  7.85180227E-02                    1_GWF-(1,54,49)
        129          2         19      0.27135115                    1_GWF-(1,29,80)     -0.16709200                      1_GWF-(1,1,2)
        130          2         20     -0.10805091                    1_GWF-(1,60,48)     -0.26343488                      1_GWF-(1,1,2)
        131          2         21 -5.38274090E-03                      1_GWF-(1,2,1) -5.67945627E-02                      1_GWF-(1,2,2)
        132          2         22 -2.66763808E-02                    1_GWF-(1,60,49) -5.77213900E-02                      1_GWF-(1,2,2)
        133          2         23      0.30256713                      1_GWF-(1,1,2) -7.29761681E-02                      1_GWF-(1,2,2)
        134          2         24 -5.16557572E-02                      1_GWF-(1,1,2) -7.02720876E-02                      1_GWF-(1,2,2)
        135          2         25      0.17417667                      1_GWF-(1,1,1) -5.97588567E-02                      1_GWF-(1,2,2)
        136          2         26 -3.89410961E-03                      1_GWF-(1,2,1) -6.00749916E-02                      1_GWF-(1,2,2)
        137          2         27  3.14140735E-02                      1_GWF-(1,1,2) -6.32566046E-02                      1_GWF-(1,2,1)
        138          2         28  2.50978941E-02                      1_GWF-(1,2,1) -5.69339495E-02                      1_GWF-(1,1,2)
        139          2         29 -1.45758691E-03                      1_GWF-(1,2,1) -5.88379732E-02                      1_GWF-(1,2,2)
        140          2         30  3.81567265E-03                      1_GWF-(1,2,1) -5.65707447E-02                      1_GWF-(1,2,2)
        141          2         31  4.26591565E-02                      1_GWF-(1,1,2) -5.60851176E-02                      1_GWF-(1,2,2)
        142          2         32      -1.1885109                      1_GWF-(1,1,1)     -0.13402755                      1_GWF-(1,2,1)
        143          2         33      0.96000287                      1_GWF-(1,1,1)     -0.15860087                      1_GWF-(1,2,1)
        144          2         34  6.85145421E-03                      1_GWF-(1,2,1) -6.19470370E-02                      1_GWF-(1,2,2)
        145          2         35 -3.37758384E-02                      1_GWF-(1,2,1) -7.85918827E-02                      1_GWF-(1,2,1)
        146          2         36  1.00642631E-02                      1_GWF-(1,2,1) -6.14373610E-02                      1_GWF-(1,2,2)
        147          2         37  8.55794039E-02                      1_GWF-(1,1,2) -6.11000935E-02                      1_GWF-(1,2,2)
        148          2         38      0.47388212                      1_GWF-(1,2,1)     -0.18826884                      1_GWF-(1,1,2)
        149          2         39 -1.17712204E-02                      1_GWF-(1,2,1) -4.45373529E-02                      1_GWF-(1,2,2)
        150          2         40  1.98407632E-02                      1_GWF-(1,2,1) -7.56502923E-02                      1_GWF-(1,1,2)
        151          2         41       1.6219795                      1_GWF-(1,1,1) -1.42077109E-02                      1_GWF-(1,1,2)
        152          2         42  9.32141006E-02                      1_GWF-(1,1,2) -1.42063455E-02                      1_GWF-(1,2,1)
        153          2         43     -0.37004789                      1_GWF-(1,1,2) -2.51734857E-02                      1_GWF-(1,1,2)
        154          2         44  5.10438806E-02                      1_GWF-(1,1,2) -1.28882971E-02                      1_GWF-(1,1,2)
        155          2         45      0.32079898                      1_GWF-(1,1,1) -6.89969653E-03                      1_GWF-(1,2,2)
        156          2         46  2.14667709E-02                      1_GWF-(1,1,2) -6.87518306E-03                      1_GWF-(1,2,2)
        157          2         47 -3.90426785E-02                     1_GWF-(1,80,1) -1.33087326E-02                      1_GWF-(1,1,2)
        158          2         48  7.19301975E-02                      1_GWF-(1,1,2) -6.19994689E-03                      1_GWF-(1,2,2)
        159          2         49  5.11732287E-02                      1_GWF-(1,1,1) -4.49253495E-03                      1_GWF-(1,2,2)
        160          2         50 -2.86241192E-03                      1_GWF-(1,1,2) -4.50177157E-03                      1_GWF-(1,2,2)
        161          2         51  3.26586475E-03                      1_GWF-(1,1,2) -4.43210490E-03                      1_GWF-(1,2,2)
        162          2         52      0.13012487                      1_GWF-(1,1,1)  1.09024473E-03                     1_GWF-(1,79,2)
        163          2         53  4.04249248E-02                      1_GWF-(1,1,1)  2.11033514E-03                      1_GWF-(1,1,2)
        164          2         54 -8.46999574E-02                      1_GWF-(1,1,1) -3.00012438E-03                      1_GWF-(1,1,2)
        165          2         55  3.96723012E-02                      1_GWF-(1,1,1) -1.66000676E-03                      1_GWF-(1,2,2)
        166          2         56  1.63838504E-02                      1_GWF-(1,1,1) -1.36141883E-03                      1_GWF-(1,2,1)
        167          2         57 -1.06726053E-02                      1_GWF-(1,1,2) -2.42435897E-03                      1_GWF-(1,1,2)
        168          2         58  8.46208569E-02                      1_GWF-(1,1,1)  9.13092517E-03                      1_GWF-(1,2,1)
        169          2         59 -6.36670842E-02                      1_GWF-(1,1,1) -8.63390422E-04                      1_GWF-(1,2,2)
        170          2         60  8.83651026E-03                      1_GWF-(1,1,1) -6.50030832E-04                      1_GWF-(1,2,2)
        171          2         61 -1.19353035E-02                      1_GWF-(1,1,1) -9.62858715E-04                      1_GWF-(1,2,2)
        172          2         62  2.20156026E-02                      1_GWF-(1,1,1) -3.96586822E-04                      1_GWF-(1,2,2)
        173          2         63  4.61888043E-03                      1_GWF-(1,1,1) -7.15796239E-04                      1_GWF-(1,1,2)
        174          2         64  4.83154857E-03                      1_GWF-(1,1,2) -3.19628767E-04                      1_GWF-(1,1,2)
        175          2         65  1.03284063E-03                      1_GWF-(1,1,2) -1.56896366E-04                      1_GWF-(1,2,1)
        176          2         66 -1.23827209E-03                      1_GWF-(1,1,2) -2.12961676E-04                      1_GWF-(1,1,2)
        177          2         67  2.38238200E-03                      1_GWF-(1,1,1) -9.88778199E-05                      1_GWF-(1,2,2)
        178          2         68  3.52189915E-03                      1_GWF-(1,1,1) -1.11747068E-05                      1_GWF-(1,2,2)
        179          2         69 -1.06622492E-03                      1_GWF-(1,1,1) -3.90477632E-05                      1_GWF-(1,1,2)
        180          2         70  1.55688039E-04                      1_GWF-(1,1,2) -3.00531703E-05                      1_GWF-(1,2,2)
        181          2         71  5.99565730E-06                      1_GWF-(1,2,1) -3.16433124E-05                      1_GWF-(1,1,2)
        182          2         72  2.28170117E-06                      1_GWF-(1,1,2) -3.06197962E-05                      1_GWF-(1,1,2)
        183          2         73  1.98129831E-04                      1_GWF-(1,1,1) -2.54745587E-05                      1_GWF-(1,2,2)
        184          2         74  3.21485288E-04                      1_GWF-(1,1,1) -1.99969422E-05                      1_GWF-(1,1,2)
        185          2         75  1.49729928E-04                      1_GWF-(1,1,1) -1.31625495E-05                      1_GWF-(1,2,2)
        186          2         76  1.01100043E-04                      1_GWF-(1,1,1) -1.32055062E-05                      1_GWF-(1,2,3)
        187          2         77  1.10186441E-04                      1_GWF-(1,1,1) -7.75196928E-06                      1_GWF-(1,2,2)
        188          2         78  2.95906496E-04                      1_GWF-(1,1,1)  1.53800351E-07                      1_GWF-(1,2,2)
        189          2         79 -6.06133067E-05                      1_GWF-(1,1,1) -1.57978862E-06                      1_GWF-(1,2,3)
        190          2         80  1.15167290E-05                      1_GWF-(1,1,1) -1.40477278E-06                      1_GWF-(1,2,3)
        191          2         81  3.13619754E-05                      1_GWF-(1,1,1) -3.02387503E-07                      1_GWF-(1,2,3)
        192          2         82  3.42451534E-04                      1_GWF-(1,1,1)  8.70938140E-06                      1_GWF-(1,2,2)
        193          2         83 -3.54396675E-04                      1_GWF-(1,1,1) -6.16567642E-07                      1_GWF-(1,2,2)
        194          2         84  1.11340198E-05                      1_GWF-(1,1,1) -3.55810968E-07                      1_GWF-(1,2,3)
        195          2         85  2.00002059E-06                      1_GWF-(1,1,1) -2.69083760E-07                      1_GWF-(1,2,2)
        196          2         86  3.56891148E-06                      1_GWF-(1,1,1) -1.76190840E-07                      1_GWF-(1,2,2)
        197          2         87  5.96649962E-06                      1_GWF-(1,1,1) -1.21713095E-08                      1_GWF-(1,2,2)
        198          2         88  1.44671873E-06                      1_GWF-(1,1,1)  2.80683900E-08                      1_GWF-(1,2,2)
        199          2         89 -5.38215057E-07                      1_GWF-(1,1,1)  1.31067473E-08                      1_GWF-(1,2,2)
        200          2         90 -2.69021202E-07                      1_GWF-(1,1,1)  5.59861766E-09                      1_GWF-(1,2,2)
        201          2         91 -3.20031052E-08                      1_GWF-(1,1,1)  4.70839253E-09                      1_GWF-(1,2,2)
        202          2         92 -1.35383302E-09                      1_GWF-(1,1,1)  4.67048081E-09                      1_GWF-(1,2,2)
        203          2         93 -4.49696738E-11                      1_GWF-(1,1,1)  4.66902208E-09                      1_GWF-(1,2,2)
        204          3          1      -1.3601874                    1_GWF-(1,26,70)       1.0930136                      1_GWF-(1,3,3)
        205          3          2     -0.58138039                    1_GWF-(1,29,71)      0.78631259                      1_GWF-(1,1,3)
        206          3          3     -0.44310095                    1_GWF-(1,10,57)      0.39036739                      1_GWF-(1,3,3)
        207          3          4      0.36009356                    1_GWF-(1,10,58)      0.27047197                      1_GWF-(1,2,3)
        208          3          5     -0.15297666                     1_GWF-(1,9,58)      0.37370679                      1_GWF-(1,2,2)
        209          3          6     -0.19358001                    1_GWF-(1,26,80)      0.19440812                      1_GWF-(1,2,3)
        210          3          7     -0.26299452                    1_GWF-(1,27,80)      0.12694936                      1_GWF-(1,2,3)
        211          3          8      0.12325766                    1_GWF-(1,15,58)      0.12361706                      1_GWF-(1,2,2)
        212          3          9     -0.20965939                    1_GWF-(1,27,79) -8.57467476E-02                    1_GWF-(1,15,57)
        213          3         10  5.60673561E-02                    1_GWF-(1,15,57)  6.75227075E-02                      1_GWF-(1,2,2)
        214          3         11 -9.86409863E-02                    1_GWF-(1,28,80)  4.50932258E-02                    1_GWF-(1,39,79)
        215          3         12     -0.18625001                    1_GWF-(1,32,80) -3.73994411E-02                     1_GWF-(1,79,2)
        216          3         13     -0.10102358                    1_GWF-(1,33,74)  2.93763556E-02                    1_GWF-(1,18,55)
        217          3         14  3.41957040E-02                    1_GWF-(1,30,75) -3.04438497E-02                     1_GWF-(1,79,2)
        218          3         15  1.51919654E-02                     1_GWF-(1,78,1) -3.26139096E-02                     1_GWF-(1,79,2)
        219          3         16  1.97531319E-02                     1_GWF-(1,78,2) -2.28114178E-02                     1_GWF-(1,79,2)
        220          3         17 -3.02704092E-02                     1_GWF-(1,80,1) -2.77355814E-02                      1_GWF-(1,2,2)
        221          3         18 -1.68634202E-02                     1_GWF-(1,78,2) -2.52397636E-02                      1_GWF-(1,2,2)
        222          3         19      0.10147668                     1_GWF-(1,79,1) -4.69283885E-02                     1_GWF-(1,79,2)
        223          3         20 -1.61610123E-03                     1_GWF-(1,80,1)  1.58430244E-02                    1_GWF-(1,61,79)
        224          3         21  4.08826330E-02                     1_GWF-(1,78,1)  2.70590114E-02                      1_GWF-(1,2,2)
        225          3         22     -0.29482811                     1_GWF-(1,78,1)  3.93920154E-02                    1_GWF-(1,59,79)
        226          3         23      0.74869923                     1_GWF-(1,78,1) -6.56848328E-02                      1_GWF-(1,1,3)
        227          3         24      0.60126201                     1_GWF-(1,78,2) -9.73646574E-02                    1_GWF-(1,42,79)
        228          3         25      -4.5948832                     1_GWF-(1,78,1)      0.38715114                    1_GWF-(1,59,79)
        229          3         26      0.80810843                     1_GWF-(1,78,1)      0.23277956                    1_GWF-(1,59,79)
        230          3         27     -0.23900765                     1_GWF-(1,79,1)      0.24409461                      1_GWF-(1,1,2)
        231          3         28      0.48536396                     1_GWF-(1,78,1)      0.20019917                    1_GWF-(1,58,79)
        232          3         29       1.1366820                     1_GWF-(1,78,2)      0.12127644                    1_GWF-(1,59,79)
        233          3         30       1.8821540                     1_GWF-(1,78,1) -9.66998681E-03                    1_GWF-(1,41,79)
        234          3         31     -0.22798046                     1_GWF-(1,78,1)  9.16391499E-03                      1_GWF-(1,1,2)
        235          3         32  3.09571481E-02                     1_GWF-(1,78,1)  4.71855795E-03                    1_GWF-(1,59,78)
        236          3         33  5.83676433E-02                     1_GWF-(1,78,2)  7.05568775E-03                      1_GWF-(1,1,2)
        237          3         34  2.16023478E-02                     1_GWF-(1,78,1) -3.24389340E-03                    1_GWF-(1,33,48)
        238          3         35  1.68121540E-02                    1_GWF-(1,34,42) -3.99102148E-03                    1_GWF-(1,26,79)
        239          3         36 -1.47510695E-02                     1_GWF-(1,78,1) -2.77820537E-03                    1_GWF-(1,32,49)
        240          3         37 -5.14120811E-04                     1_GWF-(1,79,1) -2.63532347E-03                    1_GWF-(1,34,48)
        241          3         38  3.94633225E-03                    1_GWF-(1,29,43) -6.45548553E-03                      1_GWF-(1,2,1)
        242          3         39 -3.99379287E-03                     1_GWF-(1,78,1) -2.22616691E-03                    1_GWF-(1,35,48)
        243          3         40 -2.23943097E-03                     1_GWF-(1,78,1) -3.16090794E-03                      1_GWF-(1,2,1)
        244          3         41  3.39565925E-02                     1_GWF-(1,78,1) -3.72681914E-03                    1_GWF-(1,33,48)
        245          3         42 -4.75347004E-02                     1_GWF-(1,78,1) -6.30781767E-03                      1_GWF-(1,2,1)
        246          3         43  1.14725802E-03                     1_GWF-(1,78,1) -1.56207274E-03                      1_GWF-(1,2,1)
        247          3         44 -2.15544408E-03                    1_GWF-(1,28,43) -1.62362594E-03                    1_GWF-(1,31,49)
        248          3         45  6.58927941E-04                    1_GWF-(1,28,44) -1.73564138E-03                    1_GWF-(1,33,48)
        249          3         46  1.50390337E-02                    1_GWF-(1,29,43) -1.18896836E-03                      1_GWF-(1,2,1)
        250          3         47 -4.36766743E-03                     1_GWF-(1,78,1) -5.26960809E-03                      1_GWF-(1,1,2)
        251          3         48  2.58871126E-03                    1_GWF-(1,31,42) -8.63372456E-04                      1_GWF-(1,2,2)
        252          3         49  1.70098401E-04                    1_GWF-(1,68,80) -8.44816492E-04                      1_GWF-(1,2,2)
        253          3         50  6.93167001E-04                    1_GWF-(1,26,43) -8.48356970E-04                      1_GWF-(1,1,2)
        254          3         51  3.58900631E-04                    1_GWF-(1,26,43) -9.01850189E-04                      1_GWF-(1,1,2)
        255          3         52  2.90823060E-03                    1_GWF-(1,27,43) -8.06570873E-04                      1_GWF-(1,2,1)
        256          3         53  3.95918581E-05                    1_GWF-(1,23,58) -7.21890385E-04                      1_GWF-(1,2,2)
        257          3         54  1.70666008E-02                    1_GWF-(1,27,43) -2.67432082E-04                     1_GWF-(1,79,2)
        258          3         55      0.23472438                    1_GWF-(1,29,42)  9.82149048E-02                      1_GWF-(1,2,1)
        259          3         56     -0.25383767                    1_GWF-(1,29,42) -8.48202142E-04                      1_GWF-(1,2,1)
        260          3         57  3.34001041E-04                    1_GWF-(1,22,43) -1.09484396E-03                      1_GWF-(1,1,2)
        261          3         58  4.79562508E-04                    1_GWF-(1,22,43) -1.17841279E-03                      1_GWF-(1,2,1)
        262          3         59  5.17595426E-05                    1_GWF-(1,23,76) -8.31289451E-04                      1_GWF-(1,1,2)
        263          3         60 -4.70569836E-04                    1_GWF-(1,29,42) -7.60939373E-04                      1_GWF-(1,2,2)
        264          3         61  3.79001745E-03                    1_GWF-(1,29,42) -6.44205782E-04                      1_GWF-(1,2,2)
        265          3         62  1.72227962E-02                    1_GWF-(1,29,42) -1.44088126E-04                      1_GWF-(1,1,2)
        266          3         63 -4.60720378E-02                    1_GWF-(1,29,42) -3.45220948E-03                      1_GWF-(1,2,1)
        267          3         64 -1.33258171E-02                    1_GWF-(1,30,42) -1.93526639E-03                      1_GWF-(1,2,2)
        268          3         65  1.38151596E-02                    1_GWF-(1,30,42) -1.75405260E-03                      1_GWF-(1,1,2)
        269          3         66  4.99432342E-02                    1_GWF-(1,30,42)  4.90704478E-04                      1_GWF-(1,1,2)
        270          3         67  1.32098547E-05                    1_GWF-(1,23,77)  1.52265426E-04                      1_GWF-(1,2,1)
        271          3         68  1.36509661E-02                    1_GWF-(1,30,42)  5.46597717E-04                    1_GWF-(1,26,79)
        272          3         69 -1.62525521E-03                    1_GWF-(1,30,42)  5.16871589E-04                      1_GWF-(1,2,1)
        273          3         70  1.20652390E-03                    1_GWF-(1,29,42)  4.15717023E-04                      1_GWF-(1,2,2)
        274          3         71  2.32994127E-02                    1_GWF-(1,30,42)  1.16489424E-03                      1_GWF-(1,1,2)
        275          3         72 -3.74323951E-02                    1_GWF-(1,30,42) -2.46602180E-05                      1_GWF-(1,2,3)
        276          3         73  6.19016417E-04                    1_GWF-(1,30,42)  5.11921698E-06                    1_GWF-(1,54,79)
        277          3         74  6.16235394E-04                    1_GWF-(1,30,42)  2.15345537E-05                      1_GWF-(1,1,2)
        278          3         75 -1.84178718E-04                    1_GWF-(1,30,42)  1.43144233E-05                      1_GWF-(1,3,2)
        279          3         76  1.85599801E-06                    1_GWF-(1,32,41)  1.28872671E-05                      1_GWF-(1,2,2)
        280          3         77  1.78042226E-04                    1_GWF-(1,29,42)  1.84713877E-05                      1_GWF-(1,2,2)
        281          3         78 -4.74697596E-05                    1_GWF-(1,25,43)  4.65764133E-05                      1_GWF-(1,1,2)
        282          3         79  1.20435081E-03                    1_GWF-(1,30,42)  7.60576975E-05                      1_GWF-(1,1,2)
        283          3         80 -1.84407438E-03                    1_GWF-(1,30,42) -4.36731847E-06                      1_GWF-(1,2,1)
        284          3         81 -4.09985495E-06                    1_GWF-(1,31,41) -6.52134123E-06                      1_GWF-(1,1,2)
        285          3         82 -5.76177647E-05                    1_GWF-(1,30,42) -4.44796453E-06                      1_GWF-(1,2,2)
        286          3         83  1.25102557E-04                    1_GWF-(1,30,42) -9.48093848E-07                      1_GWF-(1,2,1)
        287          3         84  2.22705293E-05                    1_GWF-(1,30,42)  4.86716979E-08                    1_GWF-(1,55,79)
        288          3         85  1.42449339E-06                    1_GWF-(1,29,42)  5.07350624E-08                      1_GWF-(1,1,2)
        289          3         86 -2.26132750E-07                    1_GWF-(1,31,42)  5.84146409E-08                      1_GWF-(1,2,1)
        290          3         87  2.42739834E-07                    1_GWF-(1,32,41)  6.32594324E-08                      1_GWF-(1,1,2)
        291          3         88  6.53781680E-07                    1_GWF-(1,30,42)  6.16264265E-08                      1_GWF-(1,2,2)
        292          3         89 -1.89688621E-06                    1_GWF-(1,30,42)  3.81816093E-09                      1_GWF-(1,2,2)
        293          3         90  2.37968994E-08                    1_GWF-(1,30,42)  4.54983650E-09                      1_GWF-(1,2,2)
        294          3         91 -1.00112803E-09                    1_GWF-(1,29,42)  4.51803917E-09                      1_GWF-(1,2,2)
        295          3         92  2.35546851E-08                    1_GWF-(1,29,42)  5.26512467E-09                      1_GWF-(1,2,2)
        296          3         93 -1.30871003E-09                    1_GWF-(1,29,42)  5.22220877E-09                      1_GWF-(1,2,2)
        297          3         94  3.47052524E-08                    1_GWF-(1,29,42)  6.31050214E-09                      1_GWF-(1,2,2)
        298          3         95 -1.24291930E-07                    1_GWF-(1,29,42)  2.40918926E-09                      1_GWF-(1,2,2)
        299          3         96 -1.02347087E-08                    1_GWF-(1,29,42)  2.08769880E-09                      1_GWF-(1,2,2)
        300          3         97  2.97876804E-08                    1_GWF-(1,29,42)  3.02341171E-09                      1_GWF-(1,2,2)
        301          3         98  1.09985606E-11                    1_GWF-(1,31,42)  3.02376163E-09                      1_GWF-(1,2,2)
        302          4          1     -0.42757018                    1_GWF-(1,28,71)      0.12655561                    1_GWF-(1,28,73)
        303          4          2 -8.36211612E-02                    1_GWF-(1,28,72)  3.75608312E-02                    1_GWF-(1,30,74)
        304          4          3 -3.02405755E-02                    1_GWF-(1,71,78)  2.33939012E-02                    1_GWF-(1,68,79)
        305          4          4 -2.71434430E-02                    1_GWF-(1,71,79)  1.43033967E-02                    1_GWF-(1,65,79)
        306          4          5 -1.81938354E-02                    1_GWF-(1,70,79) -6.31174096E-03                    1_GWF-(1,47,45)
        307          4          6  2.59352477E-03                    1_GWF-(1,17,58)  4.72730962E-03                    1_GWF-(1,69,74)
        308          4          7 -1.64807734E-03                    1_GWF-(1,25,78) -4.00290809E-03                    1_GWF-(1,47,47)
        309          4          8 -3.07767231E-03                    1_GWF-(1,48,21)  4.18941233E-03                    1_GWF-(1,70,73)
        310          4          9 -1.15926649E-03                    1_GWF-(1,18,59)  3.42395814E-03                    1_GWF-(1,45,18)
        311          4         10  9.55765782E-03                    1_GWF-(1,49,16)  1.00186534E-02                      1_GWF-(1,2,2)
        312          4         11 -1.35478120E-02                    1_GWF-(1,49,16)  3.04903125E-03                    1_GWF-(1,45,18)
        313          4         12 -1.62253301E-02                    1_GWF-(1,49,16)  3.62034790E-03                     1_GWF-(1,79,2)
        314          4         13 -1.93591198E-04                    1_GWF-(1,17,58)  2.06810133E-03                     1_GWF-(1,79,2)
        315          4         14  4.41882624E-04                     1_GWF-(1,80,1)  3.22754543E-03                      1_GWF-(1,2,2)
        316          4         15 -4.08601784E-03                    1_GWF-(1,43,12)  2.81320888E-03                    1_GWF-(1,47,75)
        317          4         16  1.05162013E-02                    1_GWF-(1,79,13) -3.91541423E-03                    1_GWF-(1,20,55)
        318          4         17  4.26384800E-02                     1_GWF-(1,80,9) -1.19866358E-02                    1_GWF-(1,54,79)
        319          4         18      0.61790820                     1_GWF-(1,80,1)     -0.11808087                    1_GWF-(1,20,55)
        320          4         19     -0.67610968                     1_GWF-(1,80,1)  1.81760812E-03                     1_GWF-(1,79,2)
        321          4         20 -1.69781869E-02                     1_GWF-(1,80,1)  2.09979219E-03                     1_GWF-(1,79,2)
        322          4         21 -4.79018361E-03                     1_GWF-(1,79,2)  1.94896136E-03                      1_GWF-(1,2,2)
        323          4         22 -3.82352103E-03                     1_GWF-(1,80,1)  3.02756784E-03                     1_GWF-(1,79,2)
        324          4         23  3.76833615E-03                     1_GWF-(1,80,1)  1.43131703E-03                      1_GWF-(1,2,2)
        325          4         24 -1.70488359E-03                    1_GWF-(1,50,71)  1.61644097E-03                      1_GWF-(1,2,2)
        326          4         25 -1.11469066E-03                    1_GWF-(1,66,80)  1.35167800E-03                      1_GWF-(1,2,2)
        327          4         26  6.21912633E-05                    1_GWF-(1,67,78)  1.34747526E-03                      1_GWF-(1,1,2)
        328          4         27 -1.70342136E-03                      1_GWF-(1,9,1)  1.28825782E-03                      1_GWF-(1,2,2)
        329          4         28  1.27937560E-02                      1_GWF-(1,7,1)  1.86750378E-03                      1_GWF-(1,1,2)
        330          4         29  2.32540756E-02                      1_GWF-(1,3,1)  2.30372582E-03                      1_GWF-(1,1,2)
        331          4         30     -0.44177552                      1_GWF-(1,1,2) -3.79344489E-02                      1_GWF-(1,1,2)
        332          4         31      0.10532964                      1_GWF-(1,1,2) -9.26104419E-03                      1_GWF-(1,2,2)
        333          4         32 -8.61963327E-02                    1_GWF-(1,33,39) -1.30732018E-02                      1_GWF-(1,2,2)
        334          4         33      0.11608224                      1_GWF-(1,1,2) -7.81857363E-03                      1_GWF-(1,2,1)
        335          4         34      0.75274719                    1_GWF-(1,32,39)  2.45401286E-02                      1_GWF-(1,2,2)
        336          4         35 -4.78052017E-02                    1_GWF-(1,32,39)  1.87529272E-02                      1_GWF-(1,2,1)
        337          4         36     -0.40069616                    1_GWF-(1,33,39)  6.43769526E-03                      1_GWF-(1,2,1)
        338          4         37  2.81842233E-02                    1_GWF-(1,32,39)  5.54735597E-03                      1_GWF-(1,1,2)
        339          4         38     -0.20120469                    1_GWF-(1,32,39) -3.95566583E-03                      1_GWF-(1,2,2)
        340          4         39      0.10216719                    1_GWF-(1,33,39)  7.03253816E-04                      1_GWF-(1,2,1)
        341          4         40  1.41218125E-04                      1_GWF-(1,1,2)  3.38802890E-04                      1_GWF-(1,2,2)
        342          4         41  6.39247204E-02                    1_GWF-(1,32,39)  2.60928231E-03                      1_GWF-(1,1,2)
        343          4         42 -7.79285468E-02                    1_GWF-(1,32,39) -2.13739889E-04                      1_GWF-(1,2,1)
        344          4         43 -4.08328141E-05                    1_GWF-(1,69,76) -2.09679396E-04                      1_GWF-(1,1,2)
        345          4         44  5.08415487E-05                      1_GWF-(1,1,2) -2.15034015E-04                      1_GWF-(1,2,1)
        346          4         45 -2.48851295E-05                     1_GWF-(1,80,1) -1.49380363E-04                      1_GWF-(1,2,2)
        347          4         46  6.98620658E-05                      1_GWF-(1,2,1) -1.45261270E-04                      1_GWF-(1,2,2)
        348          4         47  3.60629002E-04                      1_GWF-(1,1,2) -1.55262558E-04                      1_GWF-(1,2,1)
        349          4         48  8.65558647E-06                      1_GWF-(1,2,1) -1.29515689E-04                      1_GWF-(1,2,2)
        350          4         49  1.02502279E-03                      1_GWF-(1,2,1) -4.40440910E-04                      1_GWF-(1,1,2)
        351          4         50  1.33422914E-04                      1_GWF-(1,1,2) -7.55980056E-05                      1_GWF-(1,2,2)
        352          4         51  1.49293899E-04                      1_GWF-(1,2,1) -1.05962851E-04                      1_GWF-(1,1,2)
        353          4         52  1.93072053E-04                      1_GWF-(1,1,2) -5.93632483E-05                      1_GWF-(1,2,2)
        354          4         53  3.02704093E-04                      1_GWF-(1,1,2) -4.66141731E-05                      1_GWF-(1,2,2)
        355          4         54 -6.90010553E-05                      1_GWF-(1,1,2) -4.94196843E-05                      1_GWF-(1,2,2)
        356          4         55  8.52956389E-04                      1_GWF-(1,2,1) -1.26855557E-05                      1_GWF-(1,1,2)
        357          4         56  3.90030520E-06                      1_GWF-(1,1,2) -1.52350700E-05                      1_GWF-(1,2,1)
        358          4         57 -9.59436646E-07                     1_GWF-(1,80,1) -1.30569696E-05                      1_GWF-(1,1,2)
        359          4         58  6.40397995E-05                      1_GWF-(1,2,1) -1.15533126E-05                      1_GWF-(1,1,2)
        360          4         59  1.33688930E-05                      1_GWF-(1,2,1) -1.32795914E-05                      1_GWF-(1,1,2)
        361          4         60  6.70317193E-06                      1_GWF-(1,1,2) -8.14577104E-06                      1_GWF-(1,2,2)
        362          4         61  1.18213479E-05                      1_GWF-(1,2,1) -1.55573000E-05                      1_GWF-(1,1,2)
        363          4         62 -4.92286566E-05                      1_GWF-(1,2,1) -1.01541295E-05                      1_GWF-(1,2,2)
        364          4         63  9.00808821E-05                      1_GWF-(1,1,2) -3.63044260E-05                      1_GWF-(1,2,1)
        365          4         64  1.27772876E-06                      1_GWF-(1,2,1) -5.05735563E-06                      1_GWF-(1,2,2)
        366          4         65 -8.53159007E-06                      1_GWF-(1,2,1) -5.48587380E-06                      1_GWF-(1,2,2)
        367          4         66  1.97969292E-05                      1_GWF-(1,2,1) -4.53450107E-06                      1_GWF-(1,2,2)
        368          4         67  9.27233744E-05                      1_GWF-(1,1,2) -6.94542658E-07                      1_GWF-(1,1,2)
        369          4         68 -7.08111609E-06                      1_GWF-(1,2,1) -9.78408395E-07                      1_GWF-(1,2,2)
        370          4         69  6.41229435E-06                      1_GWF-(1,2,1) -1.05998916E-06                      1_GWF-(1,1,2)
        371          4         70  1.38322638E-05                      1_GWF-(1,1,2) -1.46456529E-07                      1_GWF-(1,1,2)
        372          4         71  5.68920875E-07                      1_GWF-(1,1,2) -1.00625868E-07                      1_GWF-(1,2,2)
        373          4         72  9.33441702E-09                      1_GWF-(1,2,1) -9.77216919E-08                      1_GWF-(1,2,2)
        374          4         73  1.11912700E-06                      1_GWF-(1,1,2) -4.86443582E-08                      1_GWF-(1,2,2)
        375          4         74  5.60783041E-06                      1_GWF-(1,1,2)  1.89307349E-07                      1_GWF-(1,2,2)
        376          4         75 -4.72441875E-06                      1_GWF-(1,1,2) -1.60685575E-08                      1_GWF-(1,2,1)
        377          4         76  1.59945578E-07                      1_GWF-(1,2,1) -3.94590632E-09                      1_GWF-(1,1,2)
        378          4         77 -1.30429286E-08                      1_GWF-(1,2,1) -4.15532663E-09                      1_GWF-(1,2,2)
        379          4         78  2.51050462E-08                      1_GWF-(1,2,1) -2.87287184E-09                      1_GWF-(1,2,2)
        380          4         79  2.49867680E-08                      1_GWF-(1,1,2) -2.18802610E-09                    1_GWF-(1,36,79)
        381          4         80  6.68225433E-09                      1_GWF-(1,1,2)  2.09971002E-09                    1_GWF-(1,38,18)
        382          4         81 -1.63716747E-09                      1_GWF-(1,1,2)  2.08217253E-09                    1_GWF-(1,38,18)
        383          4         82  7.70104366E-10                      1_GWF-(1,1,2)  2.08350777E-09                    1_GWF-(1,38,18)
        384          5          1 -5.22336521E-02                    1_GWF-(1,74,78)  9.60809478E-03                    1_GWF-(1,72,80)
        385          5          2 -1.10248144E-02                    1_GWF-(1,72,80)  3.43860566E-03                    1_GWF-(1,70,79)
        386          5          3 -1.07725883E-02                    1_GWF-(1,71,78) -5.90281844E-03                    1_GWF-(1,70,76)
        387          5          4  5.92921493E-03                    1_GWF-(1,71,78)  7.33514800E-04                    1_GWF-(1,66,78)
        388          5          5  2.42245101E-04                    1_GWF-(1,18,58)  7.54909634E-04                    1_GWF-(1,65,79)
        389          5          6 -1.06787819E-03                    1_GWF-(1,70,79)  1.93322127E-04                    1_GWF-(1,59,79)
        390          5          7 -5.82028642E-05                    1_GWF-(1,17,58)  1.88970197E-04                    1_GWF-(1,59,79)
        391          5          8 -1.85043147E-04                    1_GWF-(1,69,75)  8.31166265E-05                    1_GWF-(1,63,79)
        392          5          9 -6.84561685E-05                    1_GWF-(1,69,78)  5.63863550E-05                    1_GWF-(1,56,79)
        393          5         10 -1.68362300E-04                    1_GWF-(1,68,77) -5.91482028E-05                    1_GWF-(1,67,76)
        394          5         11  6.72800162E-05                    1_GWF-(1,70,80) -4.00003005E-05                    1_GWF-(1,45,50)
        395          5         12 -5.11693957E-05                     1_GWF-(1,79,2)  4.91480255E-05                      1_GWF-(1,2,2)
        396          5         13 -3.63622694E-05                     1_GWF-(1,80,1)  3.31202217E-05                      1_GWF-(1,2,2)
        397          5         14 -7.69268905E-05                     1_GWF-(1,80,1)  3.53218771E-05                      1_GWF-(1,2,2)
        398          5         15 -7.12757972E-05                     1_GWF-(1,80,1)  3.85789204E-05                      1_GWF-(1,2,2)
        399          5         16 -2.40329524E-05                     1_GWF-(1,80,1)  3.27553819E-05                      1_GWF-(1,2,2)
        400          5         17  5.31262548E-06                    1_GWF-(1,21,59)  4.50929507E-05                      1_GWF-(1,2,2)
        401          5         18 -5.32989817E-05                      1_GWF-(1,2,1)  4.77840144E-05                      1_GWF-(1,2,2)
        402          5         19 -6.98828248E-06                    1_GWF-(1,25,72)  2.64861309E-05                      1_GWF-(1,2,4)
        403          5         20  6.84782374E-06                      1_GWF-(1,2,2)  3.51664999E-05                      1_GWF-(1,2,2)
        404          5         21  3.26168522E-04                      1_GWF-(1,2,2)  8.92763643E-05                      1_GWF-(1,2,2)
        405          5         22 -8.55177024E-05                      1_GWF-(1,2,2)  4.66395300E-05                     1_GWF-(1,79,2)
        406          5         23 -3.63231321E-04                      1_GWF-(1,2,1)  3.59049455E-05                     1_GWF-(1,79,2)
        407          5         24 -1.03768810E-05                      1_GWF-(1,3,1)  2.58991608E-05                      1_GWF-(1,2,2)
        408          5         25 -1.09307960E-05                    1_GWF-(1,69,74)  2.33346748E-05                      1_GWF-(1,2,4)
        409          5         26 -6.24696246E-06                    1_GWF-(1,34,70)  2.56092522E-05                      1_GWF-(1,2,2)
        410          5         27 -9.51029713E-06                    1_GWF-(1,34,71)  2.82998657E-05                      1_GWF-(1,2,2)
        411          5         28 -6.41522674E-06                      1_GWF-(1,1,7)  3.01939205E-05                      1_GWF-(1,2,2)
        412          5         29  3.64935609E-06                    1_GWF-(1,31,71)  2.32522417E-05                      1_GWF-(1,2,4)
        413          5         30 -5.91892093E-05                    1_GWF-(1,31,71)  3.38224268E-05                      1_GWF-(1,2,2)
        414          5         31  2.58694386E-05                    1_GWF-(1,31,71)  2.77941349E-05                      1_GWF-(1,2,2)
        415          5         32  4.89075521E-06                      1_GWF-(1,3,1)  2.28097968E-05                      1_GWF-(1,4,2)
        416          5         33 -1.39491062E-04                      1_GWF-(1,2,2)  2.70607243E-05                      1_GWF-(1,1,3)
        417          5         34 -4.68247002E-05                      1_GWF-(1,3,1)  1.61931580E-05                      1_GWF-(1,2,4)
        418          5         35 -4.07062302E-02                      1_GWF-(1,2,2) -2.87033941E-03                      1_GWF-(1,2,2)
        419          5         36  4.04860602E-02                      1_GWF-(1,2,2)  8.90679686E-06                      1_GWF-(1,2,4)
        420          5         37 -8.30690359E-05                      1_GWF-(1,2,2)  1.11938115E-05                      1_GWF-(1,1,3)
        421          5         38 -4.04698320E-05                      1_GWF-(1,1,3)  4.91540891E-06                      1_GWF-(1,1,2)
        422          5         39 -1.05647752E-04                      1_GWF-(1,2,1)  2.26208220E-06                      1_GWF-(1,1,2)
        423          5         40 -5.14959766E-05                      1_GWF-(1,1,2) -1.94795642E-06                      1_GWF-(1,2,2)
        424          5         41  2.37774872E-05                      1_GWF-(1,2,1)  2.38291969E-06                     1_GWF-(1,79,2)
        425          5         42 -6.25765291E-05                     1_GWF-(1,80,1) -1.96388965E-06                      1_GWF-(1,1,2)
        426          5         43 -1.10175432E-06                    1_GWF-(1,69,74) -3.05264840E-06                      1_GWF-(1,2,2)
        427          5         44  7.64459533E-07                      1_GWF-(1,2,1) -1.65018095E-06                      1_GWF-(1,2,2)
        428          5         45  4.04939270E-06                      1_GWF-(1,2,2) -2.92840288E-06                      1_GWF-(1,1,3)
        429          5         46 -4.87486885E-06                      1_GWF-(1,2,1) -1.87990827E-06                      1_GWF-(1,2,1)
        430          5         47  2.88109798E-07                      1_GWF-(1,3,1) -1.61744155E-06                      1_GWF-(1,2,2)
        431          5         48 -2.22610970E-04                      1_GWF-(1,2,2) -2.75237540E-05                      1_GWF-(1,2,2)
        432          5         49  2.33250549E-04                      1_GWF-(1,2,2) -9.36532395E-07                      1_GWF-(1,2,4)
        433          5         50 -5.07265225E-07                    1_GWF-(1,34,41) -1.84721727E-06                      1_GWF-(1,2,2)
        434          5         51  9.14521762E-06                      1_GWF-(1,2,2) -5.69386761E-07                      1_GWF-(1,2,4)
        435          5         52  5.85460169E-06                      1_GWF-(1,3,1) -8.58445757E-07                      1_GWF-(1,2,2)
        436          5         53 -2.98148934E-06                    1_GWF-(1,60,42) -1.03262778E-06                      1_GWF-(1,1,3)
        437          5         54 -1.87408964E-08                      1_GWF-(1,2,2) -3.99892285E-07                      1_GWF-(1,2,2)
        438          5         55  5.60938083E-08                      1_GWF-(1,3,1) -5.57834466E-07                      1_GWF-(1,2,2)
        439          5         56 -3.81387764E-07                    1_GWF-(1,69,76) -6.37867296E-07                      1_GWF-(1,2,2)
        440          5         57  5.36522105E-08                     1_GWF-(1,1,42) -4.14993571E-07                      1_GWF-(1,2,2)
        441          5         58  1.80520359E-06                      1_GWF-(1,2,2) -3.14679123E-07                      1_GWF-(1,1,3)
        442          5         59  5.77183765E-06                      1_GWF-(1,2,1)  8.66402707E-08                    1_GWF-(1,53,79)
        443          5         60 -1.22988457E-05                      1_GWF-(1,2,1) -7.47593314E-07                      1_GWF-(1,2,2)
        444          5         61  1.80717970E-05                      1_GWF-(1,2,1)  1.69363183E-07                      1_GWF-(1,2,2)
        445          5         62 -2.64216208E-06                      1_GWF-(1,2,2)  5.82440977E-08                      1_GWF-(1,1,3)
        446          5         63  7.52432459E-06                      1_GWF-(1,2,2)  5.75277303E-07                      1_GWF-(1,2,2)
        447          5         64 -1.40444600E-06                      1_GWF-(1,2,2)  2.65504509E-07                      1_GWF-(1,2,5)
        448          5         65  1.46796850E-06                      1_GWF-(1,2,2)  3.87969584E-07                      1_GWF-(1,2,2)
        449          5         66 -1.49981189E-05                      1_GWF-(1,1,2) -3.06158781E-07                      1_GWF-(1,2,2)
        450          5         67 -2.50359028E-05                      1_GWF-(1,2,1) -1.44850488E-06                      1_GWF-(1,2,2)
        451          5         68 -5.01146592E-06                      1_GWF-(1,2,1) -1.30464910E-06                      1_GWF-(1,2,4)
        452          5         69  2.56259885E-05                      1_GWF-(1,2,1) -3.84886432E-07                      1_GWF-(1,2,4)
        453          5         70  1.08732499E-05                      1_GWF-(1,2,1)  6.03732169E-09                      1_GWF-(1,2,2)
        454          5         71  1.15652251E-07                      1_GWF-(1,2,1)  1.16180785E-08                      1_GWF-(1,2,2)
        455          5         72 -5.23500191E-08                      1_GWF-(1,2,1)  9.42253995E-09                      1_GWF-(1,2,2)
        456          5         73 -2.12778692E-08                      1_GWF-(1,2,1)  8.42312066E-09                      1_GWF-(1,2,2)
        457          5         74  8.24583351E-08                      1_GWF-(1,2,1)  1.21961336E-08                      1_GWF-(1,2,2)
        458          5         75 -4.33882920E-07                      1_GWF-(1,2,1) -7.23509258E-09                      1_GWF-(1,2,2)
        459          5         76 -3.63550671E-07                      1_GWF-(1,2,1) -2.29229944E-08                      1_GWF-(1,2,2)
        460          5         77 -1.01795407E-07                      1_GWF-(1,2,1) -2.85813143E-08                      1_GWF-(1,2,2)
        461          5         78  1.23123949E-07                      1_GWF-(1,2,1) -2.18227626E-08                      1_GWF-(1,2,2)
        462          5         79  5.56295319E-07                      1_GWF-(1,2,1)  2.31869127E-09                      1_GWF-(1,2,2)
        463          5         80  1.77873181E-11                      1_GWF-(1,1,2)  2.31954965E-09                      1_GWF-(1,2,2)
        464          6          1 -1.85922731E-03                    1_GWF-(1,80,52)  2.04319376E-04                    1_GWF-(1,72,80)
        465          6          2 -1.81486049E-04                    1_GWF-(1,72,80)  8.08375245E-05                    1_GWF-(1,71,79)
        466          6          3 -1.11949044E-04                    1_GWF-(1,72,79)  2.68310014E-05                    1_GWF-(1,66,79)
        467          6          4  1.07236425E-05                    1_GWF-(1,71,71)  1.71742295E-05                    1_GWF-(1,68,79)
        468          6          5 -2.16573835E-05                    1_GWF-(1,71,79)  7.01743912E-06                    1_GWF-(1,63,79)
        469          6          6 -1.66727342E-06                    1_GWF-(1,64,79)  5.77543047E-06                    1_GWF-(1,68,79)
        470          6          7 -6.23508116E-06                    1_GWF-(1,70,80)  2.34362038E-06                    1_GWF-(1,60,79)
        471          6          8  3.91789587E-07                    1_GWF-(1,69,76)  2.32650801E-06                    1_GWF-(1,60,79)
        472          6          9 -3.18272019E-06                    1_GWF-(1,68,79)  1.16817358E-06                    1_GWF-(1,56,79)
        473          6         10 -7.34445746E-07                    1_GWF-(1,68,78)  9.93051248E-07                    1_GWF-(1,55,79)
        474          6         11 -1.09736450E-06                    1_GWF-(1,65,79)  6.43757209E-07                    1_GWF-(1,53,77)
        475          6         12 -7.77704692E-08                    1_GWF-(1,70,70)  6.03688091E-07                    1_GWF-(1,53,77)
        476          6         13 -8.95148019E-07                    1_GWF-(1,60,78) -3.28506231E-07                    1_GWF-(1,70,70)
        477          6         14 -8.33057100E-07                    1_GWF-(1,65,79)  2.20649394E-07                    1_GWF-(1,47,73)
        478          6         15 -7.51178196E-08                    1_GWF-(1,47,69)  1.92544649E-07                    1_GWF-(1,46,74)
        479          6         16 -1.69834043E-06                    1_GWF-(1,67,80)  1.60393807E-07                    1_GWF-(1,47,50)
        480          6         17  7.68484494E-07                    1_GWF-(1,63,79) -7.08175284E-08                    1_GWF-(1,68,71)
        481          6         18  4.06063210E-07                    1_GWF-(1,61,79)  1.87498370E-07                    1_GWF-(1,54,79)
        482          6         19 -3.95422381E-07                    1_GWF-(1,60,79)  6.93528242E-08                    1_GWF-(1,67,72)
        483          6         20 -2.54042792E-07                    1_GWF-(1,62,79)  5.03461659E-08                      1_GWF-(1,2,2)
        484          6         21  7.12728364E-09                    1_GWF-(1,68,71)  5.06680289E-08                      1_GWF-(1,2,2)
        485          6         22 -1.02523480E-07                    1_GWF-(1,61,14)  3.94509742E-08                      1_GWF-(1,2,2)
        486          6         23 -6.72853206E-08                     1_GWF-(1,80,1)  3.43604077E-08                      1_GWF-(1,2,2)
        487          6         24  2.61440610E-08                     1_GWF-(1,79,2)  3.64064480E-08                      1_GWF-(1,2,2)
        488          6         25 -1.02702112E-07                    1_GWF-(1,66,13)  2.94009415E-08                      1_GWF-(1,2,2)
        489          6         26 -8.53222751E-08                     1_GWF-(1,80,6)  2.42778545E-08                      1_GWF-(1,2,2)
        490          6         27 -1.54845079E-07                     1_GWF-(1,80,4)  2.47963778E-08                    1_GWF-(1,30,48)
        491          6         28 -2.27982729E-07                     1_GWF-(1,80,1)  3.36966678E-08                    1_GWF-(1,31,49)
        492          6         29  1.17893700E-07                     1_GWF-(1,80,1)  2.60199176E-08                    1_GWF-(1,32,48)
        493          6         30 -1.57882949E-07                     1_GWF-(1,80,1)  3.15917930E-08                    1_GWF-(1,31,48)
        494          6         31 -1.10701973E-06                      1_GWF-(1,2,1) -1.89759707E-07                     1_GWF-(1,79,2)
        495          6         32 -6.15276020E-07                      1_GWF-(1,2,1) -7.91019652E-08                     1_GWF-(1,79,2)
        496          6         33  2.65890287E-04                      1_GWF-(1,2,1)  1.07724002E-05                      1_GWF-(1,2,2)
        497          6         34 -5.22010591E-05                     1_GWF-(1,79,2) -2.33918659E-05                     1_GWF-(1,79,2)
        498          6         35 -2.22953200E-04                      1_GWF-(1,2,1) -4.13082171E-07                     1_GWF-(1,79,2)
        499          6         36 -5.00963420E-07                      1_GWF-(1,2,1) -3.24765885E-07                     1_GWF-(1,79,2)
        500          6         37 -4.71331199E-07                    1_GWF-(1,27,47) -2.62409194E-07                      1_GWF-(1,2,2)
        501          6         38  2.44054427E-06                     1_GWF-(1,79,2) -1.98522068E-07                     1_GWF-(1,80,1)
        502          6         39 -1.30644213E-06                      1_GWF-(1,1,2)  2.37111940E-07                    1_GWF-(1,36,79)
        503          6         40  7.01209818E-06                      1_GWF-(1,2,1) -4.47199017E-08                    1_GWF-(1,35,79)
        504          6         41  1.77309121E-06                      1_GWF-(1,2,1)  1.12504126E-07                     1_GWF-(1,80,1)
        505          6         42 -7.02906664E-07                      1_GWF-(1,1,2) -7.80842778E-08                    1_GWF-(1,36,79)
        506          6         43 -1.91468548E-06                      1_GWF-(1,2,1) -1.59258410E-08                      1_GWF-(1,2,2)
        507          6         44  8.75041542E-07                      1_GWF-(1,2,1) -3.16879983E-08                    1_GWF-(1,35,79)
        508          6         45 -3.12079819E-07                      1_GWF-(1,2,1) -1.90420978E-08                    1_GWF-(1,35,79)
        509          6         46 -4.84323987E-08                      1_GWF-(1,1,2) -1.53540521E-08                    1_GWF-(1,35,79)
        510          6         47 -1.95564576E-08                      1_GWF-(1,1,2) -1.31952299E-08                    1_GWF-(1,35,79)
        511          6         48 -1.07983620E-08                    1_GWF-(1,69,77) -1.17572074E-08                    1_GWF-(1,35,79)
        512          6         49  1.85344078E-09                      1_GWF-(1,1,2) -1.19918870E-08                    1_GWF-(1,35,79)
        513          6         50 -2.27036609E-08                    1_GWF-(1,69,78) -8.56106111E-09                    1_GWF-(1,35,79)
        514          6         51 -4.98617754E-08                    1_GWF-(1,69,78)  1.02046520E-09                     1_GWF-(1,79,2)
        515          6         52 -1.22696178E-08                    1_GWF-(1,69,78) -9.19248232E-10                    1_GWF-(1,60,79)
        516          6         53 -1.68904051E-09                    1_GWF-(1,69,78)  1.09620587E-09                    1_GWF-(1,35,79)
        517          6         54  8.31049009E-09                    1_GWF-(1,69,78)  7.93839165E-10                     1_GWF-(1,79,2)
        518          6         55  5.58824012E-08                    1_GWF-(1,69,78) -8.57969514E-09                    1_GWF-(1,35,79)
        519          6         56 -1.99756139E-07                    1_GWF-(1,69,78)  2.10304287E-08                    1_GWF-(1,35,79)
        520          6         57 -5.23975350E-09                    1_GWF-(1,29,76)  2.03819325E-08                    1_GWF-(1,35,79)
        521          6         58  3.78637688E-08                    1_GWF-(1,69,78)  1.46909070E-08                    1_GWF-(1,35,79)
        522          6         59 -3.16919241E-08                    1_GWF-(1,69,78)  1.92666114E-08                    1_GWF-(1,35,79)
        523          6         60  8.17352769E-08                    1_GWF-(1,69,78)  6.95574973E-09                    1_GWF-(1,35,79)
        524          6         61  3.20960000E-09                    1_GWF-(1,69,78)  6.44911259E-09                    1_GWF-(1,35,79)
        525          6         62  1.08889003E-09                    1_GWF-(1,69,79)  6.25799465E-09                    1_GWF-(1,35,79)
        526          6         63 -1.30632495E-09                    1_GWF-(1,69,79)  6.47087772E-09                    1_GWF-(1,35,79)
        527          6         64 -9.78711972E-10                    1_GWF-(1,69,78)  6.61414504E-09                    1_GWF-(1,35,79)
        528          7          1  2.46835613E-05                    1_GWF-(1,78,57) -9.67819443E-07                    1_GWF-(1,76,59)
        529          7          2  9.73214948E-07                    1_GWF-(1,76,59) -1.31813315E-07                    1_GWF-(1,73,62)
        530          7          3  2.38811654E-07                    1_GWF-(1,73,63) -4.61885480E-08                    1_GWF-(1,70,65)
        531          7          4 -5.49408761E-07                    1_GWF-(1,70,69) -2.97487994E-07                    1_GWF-(1,70,67)
        532          7          5  6.64395912E-07                    1_GWF-(1,70,69) -1.79046426E-08                    1_GWF-(1,64,73)
        533          7          6  8.16118890E-09                    1_GWF-(1,70,71) -1.10026853E-08                    1_GWF-(1,66,73)
        534          7          7 -3.10012213E-08                    1_GWF-(1,65,71) -2.44403715E-08                    1_GWF-(1,65,73)
        535          7          8  1.57685441E-08                    1_GWF-(1,66,69) -1.49753362E-08                    1_GWF-(1,63,74)
        536          7          9  7.69841756E-08                    1_GWF-(1,70,78) -1.24358890E-08                    1_GWF-(1,55,79)
        537          7         10  6.12633051E-08                    1_GWF-(1,69,79) -9.79895955E-09                    1_GWF-(1,52,79)
        538          7         11 -1.70986967E-08                    1_GWF-(1,70,79) -5.30962932E-09                    1_GWF-(1,53,79)
        539          7         12 -9.89712686E-10                    1_GWF-(1,68,71) -4.57667225E-09                    1_GWF-(1,53,79)
        540          8          1  8.91928984E-09                    1_GWF-(1,77,49) -3.32491828E-09                    1_GWF-(1,78,57)
        541          8          2  6.21513476E-09                    1_GWF-(1,77,49)  5.33320031E-09                    1_GWF-(1,54,79)
        542          8          3 -6.63003993E-10                    1_GWF-(1,70,78)  5.35654177E-09                    1_GWF-(1,54,79)
        543          9          1 -2.92898708E-09                    1_GWF-(1,55,79)  3.12236000E-09                    1_GWF-(1,56,79)
        544          9          2 -5.05988299E-09                    1_GWF-(1,55,79) -2.60670141E-09                    1_GWF-(1,52,79)
        545          9          3 -7.68272921E-10                    1_GWF-(1,77,58) -2.47769765E-09                    1_GWF-(1,52,79)
        546         10          1 -2.70585499E-09                    1_GWF-(1,77,58) -2.22035380E-09                    1_GWF-(1,77,58)
        547         10          2 -3.56026005E-09                    1_GWF-(1,69,70) -3.79904638E-09                    1_GWF-(1,77,58)
        548         10          3  1.71042768E-09                    1_GWF-(1,77,58)  3.08350052E-09                    1_GWF-(1,52,79)
        549         10          4  1.47431229E-09                    1_GWF-(1,77,58)  2.90137146E-09                    1_GWF-(1,52,79)
        550         10          5  1.54902857E-09                    1_GWF-(1,77,58)  2.65402108E-09                    1_GWF-(1,52,78)
        551         10          6  1.59526105E-09                    1_GWF-(1,76,59)  3.13020474E-09                    1_GWF-(1,55,79)
        552         10          7 -1.70234332E-09                    1_GWF-(1,65,71)  3.69541763E-09                    1_GWF-(1,56,79)
        553         10          8 -1.21095282E-09                    1_GWF-(1,69,74)  3.88103215E-09                    1_GWF-(1,56,79)
        554         10          9 -8.04069122E-10                    1_GWF-(1,69,74)  3.84242669E-09                    1_GWF-(1,57,79)
        555         11          1 -3.64088928E-09                    1_GWF-(1,76,59)  2.50465263E-09                    1_GWF-(1,58,79)
        556         11          2 -3.90132967E-09                    1_GWF-(1,75,60) -3.05666069E-09                    1_GWF-(1,76,59)
        557         11          3  1.51031562E-09                    1_GWF-(1,76,59) -1.81964967E-09                    1_GWF-(1,76,59)
        558         11          4  1.44722030E-09                    1_GWF-(1,76,59)  1.27600170E-09                    1_GWF-(1,62,71)
        559         11          5  1.67990160E-09                    1_GWF-(1,76,59)  1.16670756E-09                    1_GWF-(1,61,71)
        560         11          6  1.11940106E-09                    1_GWF-(1,76,59)  1.28958489E-09                    1_GWF-(1,76,59)
        561         11          7  2.60743535E-10                    1_GWF-(1,75,61)  1.34303876E-09                    1_GWF-(1,76,59)
        562         12          1 -1.72650054E-09                    1_GWF-(1,76,59) -1.12869062E-09                      1_GWF-(1,2,2)
        563         12          2 -3.35955610E-09                    1_GWF-(1,69,70) -2.34303529E-09                    1_GWF-(1,76,59)
        564         12          3  9.74757885E-10                    1_GWF-(1,76,59) -1.57535835E-09                    1_GWF-(1,69,69)
        565         13          1  1.74404642E-09                    1_GWF-(1,76,59) -1.11115459E-09                      1_GWF-(1,2,2)
        566         13          2 -2.84179953E-09                    1_GWF-(1,72,65)  2.00376660E-09                    1_GWF-(1,69,68)
        567         13          3 -6.32308048E-10                    1_GWF-(1,70,69)  1.67939302E-09                    1_GWF-(1,69,69)
        568         14          1 -1.41967204E-09                    1_GWF-(1,76,59) -1.09504087E-09                      1_GWF-(1,2,2)
        569         14          2 -2.65696709E-09                    1_GWF-(1,76,59)  1.98488970E-09                    1_GWF-(1,66,72)
        570         14          3  4.81851761E-10                    1_GWF-(1,70,69)  1.62512321E-09                    1_GWF-(1,66,73)
        571         15          1  1.18518459E-09                    1_GWF-(1,76,59) -1.07714117E-09                      1_GWF-(1,2,2)
        572         15          2  2.22826623E-09                    1_GWF-(1,76,59)  1.87034959E-09                    1_GWF-(1,69,68)
        573         15          3 -5.04715797E-10                    1_GWF-(1,70,69)  1.60210946E-09                    1_GWF-(1,69,69)
        574         16          1 -1.13096370E-09                    1_GWF-(1,70,70) -1.06496042E-09                      1_GWF-(1,2,2)
        575         16          2 -2.32191406E-09                    1_GWF-(1,70,70)  1.99537005E-09                    1_GWF-(1,66,71)
        576         16          3  3.74982740E-10                    1_GWF-(1,70,69)  1.73539003E-09                    1_GWF-(1,66,72)
        577         17          1  1.02318171E-09                    1_GWF-(1,70,70) -1.04652782E-09                      1_GWF-(1,2,2)
        578         17          2  2.10720293E-09                    1_GWF-(1,70,70) -1.68647594E-09                    1_GWF-(1,66,71)
        579         17          3 -3.90267385E-10                    1_GWF-(1,70,69)  1.45448230E-09                    1_GWF-(1,69,68)
        580         18          1 -1.03961771E-09                    1_GWF-(1,70,69) -1.03465471E-09                      1_GWF-(1,2,2)
        581         18          2 -2.31528267E-09                    1_GWF-(1,70,70)  2.00560722E-09                    1_GWF-(1,67,72)
        582         18          3  3.18840205E-10                    1_GWF-(1,71,69)  1.71139292E-09                    1_GWF-(1,66,71)
        583         19          1  9.53871669E-10                    1_GWF-(1,70,69) -1.01802586E-09                      1_GWF-(1,2,2)
 --------------------------------------------------------------------------------------------------------------------------------------



 MEMORY MANAGER TOTAL STORAGE BY DATA TYPE, IN MEGABYTES
 -------------------------------
                    ALLOCATED   
 DATA TYPE           MEMORY     
 -------------------------------
 Character        8.56600000E-03
 Logical          4.80000000E-05
 Integer          4.2027400     
 Real             7.1171920     
 -------------------------------
 Total            11.328546     
 Virtual          0.0000000     
 -------------------------------


 
 Run end date and time (yyyy/mm/dd hh:mm:ss): 2025/04/29 20:50:43
 Elapsed run time:  0.325 Seconds
 Normal termination of simulation.
