                                   MODFLOW 6
                U.S. GEOLOGICAL SURVEY MODULAR HYDROLOGIC MODEL
                          GROUNDWATER FLOW MODEL (GWF)
                            VERSION 6.6.1 02/10/2025

   MODFLOW 6 compiled Feb 14 2025 13:40:10 with Intel(R) Fortran Intel(R) 64
   Compiler Classic for applications running on Intel(R) 64, Version 2021.7.0
                             Build 20220726_000000

This software has been approved for release by the U.S. Geological 
Survey (USGS). Although the software has been subjected to rigorous 
review, the USGS reserves the right to update the software as needed 
pursuant to further analysis and review. No warranty, expressed or 
implied, is made by the USGS or the U.S. Government as to the 
functionality of the software and related material nor shall the 
fact of release constitute any such warranty. Furthermore, the 
software is released on condition that neither the USGS nor the U.S. 
Government shall be held liable for any damages resulting from its 
authorized or unauthorized use. Also refer to the USGS Water 
Resources Software User Rights Notice for complete use, copyright, 
and distribution information.


As a work of the United States Government, this USGS product is 
in the public domain within the United States. You can copy, 
modify, distribute, and perform the work, even for commercial 
purposes, all without asking permission. Additionally, USGS 
waives copyright and related rights in the work worldwide 
through CC0 1.0 Universal Public Domain Dedication 
(https://creativecommons.org/publicdomain/zero/1.0/).

The following GNU Lesser General Public License (LGPL) libraries
are used in this USGS product:

    SPARSKIT version 2.0
      ilut, luson, and qsplit 
      (https://www-users.cse.umn.edu/~saad/software/SPARSKIT/)

    RCM - Reverse Cuthill McKee Ordering
      (https://people.math.sc.edu/Burkardt/f_src/rcm/rcm.html)

    BLAS - Basic Linear Algebra Subprograms Level 1
      (https://people.math.sc.edu/Burkardt/f_src/blas1_d/blas1_d.html)

    SPARSEKIT - Sparse Matrix Utility Package
      amux, dperm, dvperm, rperm, and cperm
      (https://people.sc.fsu.edu/~jburkardt/f77_src/sparsekit/sparsekit.html)

The following BSD-3 License libraries are used in this USGS product:

    Modern Fortran DAG Library
      Copyright (c) 2018, Jacob Williams
      All rights reserved.
      (https://github.com/jacobwilliams/daglib)

MODFLOW 6 compiler options: /O2 /heap-arrays:0 /fpe:0 /traceback /nologo /fpp
/c /module:win64\mod_mf6\ /object:win64\obj_mf6\

System command used to initiate simulation:
C:\Users\gross.DESKTOP-AIRQM2M\anaconda3\Scripts\mf6.exe

MODFLOW was compiled using uniform precision.

Real Variables
  KIND: 8
  TINY (smallest non-zero value):    2.225074-308
  HUGE (largest value):    1.797693+308
  PRECISION: 15
  SIZE IN BITS: 64

Integer Variables
  KIND: 4
  HUGE (largest value): 2147483647
  SIZE IN BITS: 32

Long Integer Variables
  KIND: 8
  HUGE (largest value): 9223372036854775807
  SIZE IN BITS: 64

Logical Variables
  KIND: 4
  SIZE IN BITS: 32
 
 NAMEFILE OPTIONS:
    NEWTON-RAPHSON method enabled for the model.
    FLOWS WILL BE SAVED TO BUDGET FILE SPECIFIED IN OUTPUT CONTROL
 END NAMEFILE OPTIONS:

 DIS -- STRUCTURED GRID DISCRETIZATION PACKAGE, VERSION 2 : 3/27/2014 - INPUT READ FROM MEMPATH: __INPUT__/EX-GWF-CSUB-P01/DIS                     


 NPF -- NODE PROPERTY FLOW PACKAGE, VERSION 1, 3/30/2015 INPUT READ FROM MEMPATH: __INPUT__/EX-GWF-CSUB-P01/NPF                     


 IC -- Initial Conditions Package, Version 8, 3/28/2015 input read from mempath: __INPUT__/EX-GWF-CSUB-P01/IC                      


 Setting Discretization Options
    Model length unit [0=UND, 1=FEET, 2=METERS, 3=CENTIMETERS] set as 2
 End Setting Discretization Options

 Setting Discretization Dimensions
    NLAY = 3
    NROW = 1
    NCOL = 35
 End Setting Discretization Dimensions

 Setting Discretization Griddata
    DELR set from input file
    DELC set from input file
    TOP set from input file
    BOTM set from input file
 End Setting Discretization Griddata

 Setting NPF Options
    Specific discharge will be calculated at cell centers and written to DATA-SPDIS in budget file when requested.
 End Setting NPF Options

 Setting NPF Griddata
    ICELLTYPE set from input file
    K set from input file
    K33 not provided.  Setting K33 = K.
    K22 not provided.  Setting K22 = K.
 End Setting NPF Griddata

    STRT set from input file

 STO -- STORAGE PACKAGE, VERSION 1, 5/19/2014 INPUT READ FROM MEMPATH: __INPUT__/EX-GWF-CSUB-P01/STO                     


 PROCESSING STORAGE OPTIONS
 END OF STORAGE OPTIONS

 CSUB -- COMPACTION PACKAGE, VERSION 1, 12/15/2019 INPUT READ FROM UNIT 1009


 # File generated by Flopy version 3.9.1 on 06/03/2025 at 08:11:33.
 PROCESSING CSUB OPTIONS
    LISTS OF CSUB CELLS WILL BE PRINTED.
    FLOWS WILL BE SAVED TO BUDGET FILE SPECIFIED IN OUTPUT CONTROL
    TIME-SERIES DATA WILL BE READ FROM FILE: ex-gwf-csub-p01.load.ts
 # File generated by Flopy version 3.9.1 on 06/03/2025 at 08:11:33.
 END OF CSUB OPTIONS


 CSUB PACKAGE SETTINGS
    NUMBER OF DELAY CELLS = 19
    EFFECTIVE-STRESS FORMULATION
    ELASTIC AND INELASTIC SPECIFIC STORAGE COEFFICIENTS WILL BE 
      SPECIFIED
    THICKNESS AND VOID RATIO WILL BE ADJUSTED DURING THE SIMULATION
    INTERBED THICKNESS WILL BE SPECIFIED AS A THICKNESS
    PRECONSOLIDATION STRESS WILL BE SPECIFIED RELATIVE TO INITIAL
      STRESS CONDITIONS
    DELAY INTERBED HEADS WILL BE SPECIFIED RELATIVE TO INITIAL 
      GWF HEADS
    SPECIFIC STORAGE VALUES WILL BE CALCULATED USING THE CURRENT
      EFFECTIVE STRESS
    GAMMAW        = 9806.650000000000
    BETA          = .4651200000000000E-09
    GAMMAW * BETA = .4561269047999999E-05

 PROCESSING CSUB DIMENSIONS
    NINTERBEDS = 0
    MAXSIG0 = 1
 END OF CSUB DIMENSIONS

 CG_SKE_CR =  0.3300000E-04 FOR LAYER 1

 CG_SKE_CR =  0.6600000E-03 FOR LAYER 2

 CG_SKE_CR =  0.4500000E-06 FOR LAYER 3

 CG_THETA =  0.2500000     FOR LAYER 1

 CG_THETA =  0.5000000     FOR LAYER 2

 CG_THETA =  0.3000000     FOR LAYER 3

 SGM =   1.700000    

 SGS =   2.000000    

The observation utility is active for "EX-GWF-CSUB-P01"
 # File generated by Flopy version 3.9.1 on 06/03/2025 at 08:11:33.

Processing observation options:

Text output number of digits of precision set to: 10
The PRINT_INPUT option has been specified.


 OBSERVATIONS READ FROM FILE "ex-gwf-csub-p01.obs"
 ----------------------------------------------------------------------------------------------------------------------------------------------------------------------------------------------------------------------------
 NAME                                     TYPE                                       TIME         LOCATION DATA                              OUTPUT FILENAME                                                                 
 ----------------------------------------------------------------------------------------------------------------------------------------------------------------------------------------------------------------------------
 W3_1_1                                   CONTINUOUS  HEAD                           ALL TIMES    "  3 1 12"                                 gwf_calib_obs.csv                                                               
 ----------------------------------------------------------------------------------------------------------------------------------------------------------------------------------------------------------------------------


    BINARY GRID INFORMATION WILL BE WRITTEN TO:
      UNIT NUMBER: 1014
      FILE NAME: ex-gwf-csub-p01.dis.grb

 OPENED ex-gwf-csub-p01.dis.grb
 FILE TYPE:DATA(BINARY)   UNIT 1014   STATUS:REPLACE             
 FORMAT:UNFORMATTED            ACCESS:STREAM              
 ACTION:READWRITE           

      THE LAST TIME STEP WILL BE PRINTED
      THE LAST TIME STEP WILL BE PRINTED

start timestep kper="1" kstp="1" mode="normal"



 PROCESSING STORAGE PERIOD DATA
 END PROCESSING STORAGE PERIOD DATA


 STRESS PERIOD 1 IS STEADY-STATE


 CSUB PACKAGE (CSUB) DATA FOR PERIOD      1
 ------------------------------------
        CELLID        SIG0           
 ------------------------------------
       (1,1,1)         0.85008220    
 ------------------------------------



Time-series controlled values in stress period: 1, time step 1:
"CSUB" package: Boundary 1, SIG0 value from time series "LOAD" =  0.85008    

1
  HEAD IN LAYER   1 AT END OF TIME STEP   1 IN STRESS PERIOD    1
  ---------------------------------------------------------------------------

            1           2           3           4           5           6           7           8           9          10
           11          12          13          14          15          16          17          18          19          20
           21          22          23          24          25          26          27          28          29          30
           31          32          33          34          35
 ....................................................................................................................................................................................................................................................................................................................................................................................................................................
   1   -10.70      -10.70      -10.70      -10.70      -10.70      -10.70      -10.70      -10.70      -10.70      -10.70    
       -10.70      -10.70      -10.70      -10.70      -10.70      -10.70      -10.70      -10.70      -10.70      -10.70    
       -10.70      -10.70      -10.70      -10.70      -10.70      -10.70      -10.70      -10.70      -10.70      -10.70    
       -10.70      -10.70      -10.70      -10.70      -10.70    
1
  HEAD IN LAYER   2 AT END OF TIME STEP   1 IN STRESS PERIOD    1
  ---------------------------------------------------------------------------

            1           2           3           4           5           6           7           8           9          10
           11          12          13          14          15          16          17          18          19          20
           21          22          23          24          25          26          27          28          29          30
           31          32          33          34          35
 ....................................................................................................................................................................................................................................................................................................................................................................................................................................
   1   -10.70      -10.70      -10.70      -10.70      -10.70      -10.70      -10.70      -10.70      -10.70      -10.70    
       -10.70      -10.70      -10.70      -10.70      -10.70      -10.70      -10.70      -10.70      -10.70      -10.70    
       -10.70      -10.70      -10.70      -10.70      -10.70      -10.70      -10.70      -10.70      -10.70      -10.70    
       -10.70      -10.70      -10.70      -10.70      -10.70    
1
  HEAD IN LAYER   3 AT END OF TIME STEP   1 IN STRESS PERIOD    1
  ---------------------------------------------------------------------------

            1           2           3           4           5           6           7           8           9          10
           11          12          13          14          15          16          17          18          19          20
           21          22          23          24          25          26          27          28          29          30
           31          32          33          34          35
 ....................................................................................................................................................................................................................................................................................................................................................................................................................................
   1   -10.70      -10.70      -10.70      -10.70      -10.70      -10.70      -10.70      -10.70      -10.70      -10.70    
       -10.70      -10.70      -10.70      -10.70      -10.70      -10.70      -10.70      -10.70      -10.70      -10.70    
       -10.70      -10.70      -10.70      -10.70      -10.70      -10.70      -10.70      -10.70      -10.70      -10.70    
       -10.70      -10.70      -10.70      -10.70      -10.70    


  VOLUME BUDGET FOR ENTIRE MODEL AT END OF TIME STEP    1, STRESS PERIOD   1
  ---------------------------------------------------------------------------------------------------

     CUMULATIVE VOLUME      L**3       RATES FOR THIS TIME STEP      L**3/T          PACKAGE NAME    
     ------------------                 ------------------------                     ----------------

           IN:                                      IN:
           ---                                      ---
              STO-SS =           0.0000                STO-SS =           0.0000     STORAGE                          
              STO-SY =           0.0000                STO-SY =           0.0000     STORAGE                          
      CSUB-CGELASTIC =           0.0000        CSUB-CGELASTIC =           0.0000     CSUB                             
      CSUB-WATERCOMP =           0.0000        CSUB-WATERCOMP =           0.0000     CSUB                             

            TOTAL IN =           0.0000              TOTAL IN =           0.0000

          OUT:                                     OUT:
          ----                                     ----
              STO-SS =           0.0000                STO-SS =           0.0000     STORAGE                          
              STO-SY =           0.0000                STO-SY =           0.0000     STORAGE                          
      CSUB-CGELASTIC =           0.0000        CSUB-CGELASTIC =           0.0000     CSUB                             
      CSUB-WATERCOMP =           0.0000        CSUB-WATERCOMP =           0.0000     CSUB                             

           TOTAL OUT =           0.0000             TOTAL OUT =           0.0000

            IN - OUT =           0.0000              IN - OUT =           0.0000

 PERCENT DISCREPANCY =           0.00     PERCENT DISCREPANCY =           0.00




         TIME SUMMARY AT END OF TIME STEP    1 IN STRESS PERIOD    1
                    SECONDS     MINUTES      HOURS       DAYS        YEARS
                    -----------------------------------------------------------
   TIME STEP LENGTH 0.50000     8.33333E-03 1.38889E-04 5.78704E-06 1.58440E-08
 STRESS PERIOD TIME 0.50000     8.33333E-03 1.38889E-04 5.78704E-06 1.58440E-08
         TOTAL TIME 0.50000     8.33333E-03 1.38889E-04 5.78704E-06 1.58440E-08


end timestep


start timestep kper="2" kstp="1" mode="normal"



 PROCESSING STORAGE PERIOD DATA
 END PROCESSING STORAGE PERIOD DATA


 STRESS PERIOD 2 IS TRANSIENT


 REUSING CSUBS FROM LAST STRESS PERIOD

Time-series controlled values in stress period: 2, time step 1:
"CSUB" package: Boundary 1, SIG0 value from time series "LOAD" =  0.85008    


end timestep


start timestep kper="2" kstp="2" mode="normal"


Time-series controlled values in stress period: 2, time step 2:
"CSUB" package: Boundary 1, SIG0 value from time series "LOAD" =  0.85008    


end timestep


start timestep kper="2" kstp="3" mode="normal"


Time-series controlled values in stress period: 2, time step 3:
"CSUB" package: Boundary 1, SIG0 value from time series "LOAD" =  0.85008    


end timestep


start timestep kper="2" kstp="4" mode="normal"


Time-series controlled values in stress period: 2, time step 4:
"CSUB" package: Boundary 1, SIG0 value from time series "LOAD" =  0.85008    


end timestep


start timestep kper="2" kstp="5" mode="normal"


Time-series controlled values in stress period: 2, time step 5:
"CSUB" package: Boundary 1, SIG0 value from time series "LOAD" =  0.85008    


end timestep


start timestep kper="2" kstp="6" mode="normal"


Time-series controlled values in stress period: 2, time step 6:
"CSUB" package: Boundary 1, SIG0 value from time series "LOAD" =  0.85008    


end timestep


start timestep kper="2" kstp="7" mode="normal"


Time-series controlled values in stress period: 2, time step 7:
"CSUB" package: Boundary 1, SIG0 value from time series "LOAD" =  0.85008    


end timestep


start timestep kper="2" kstp="8" mode="normal"


Time-series controlled values in stress period: 2, time step 8:
"CSUB" package: Boundary 1, SIG0 value from time series "LOAD" =  0.85008    


end timestep


start timestep kper="2" kstp="9" mode="normal"


Time-series controlled values in stress period: 2, time step 9:
"CSUB" package: Boundary 1, SIG0 value from time series "LOAD" =  0.85008    


end timestep


start timestep kper="2" kstp="10" mode="normal"


Time-series controlled values in stress period: 2, time step 10:
"CSUB" package: Boundary 1, SIG0 value from time series "LOAD" =  0.85008    


end timestep


start timestep kper="2" kstp="11" mode="normal"


Time-series controlled values in stress period: 2, time step 11:
"CSUB" package: Boundary 1, SIG0 value from time series "LOAD" =  0.85008    


end timestep


start timestep kper="2" kstp="12" mode="normal"


Time-series controlled values in stress period: 2, time step 12:
"CSUB" package: Boundary 1, SIG0 value from time series "LOAD" =  0.85008    


end timestep


start timestep kper="2" kstp="13" mode="normal"


Time-series controlled values in stress period: 2, time step 13:
"CSUB" package: Boundary 1, SIG0 value from time series "LOAD" =  0.85009    


end timestep


start timestep kper="2" kstp="14" mode="normal"


Time-series controlled values in stress period: 2, time step 14:
"CSUB" package: Boundary 1, SIG0 value from time series "LOAD" =  0.85010    


end timestep


start timestep kper="2" kstp="15" mode="normal"


Time-series controlled values in stress period: 2, time step 15:
"CSUB" package: Boundary 1, SIG0 value from time series "LOAD" =  0.85007    


end timestep


start timestep kper="2" kstp="16" mode="normal"


Time-series controlled values in stress period: 2, time step 16:
"CSUB" package: Boundary 1, SIG0 value from time series "LOAD" =  0.85004    


end timestep


start timestep kper="2" kstp="17" mode="normal"


Time-series controlled values in stress period: 2, time step 17:
"CSUB" package: Boundary 1, SIG0 value from time series "LOAD" =  0.85014    


end timestep


start timestep kper="2" kstp="18" mode="normal"


Time-series controlled values in stress period: 2, time step 18:
"CSUB" package: Boundary 1, SIG0 value from time series "LOAD" =  0.85028    


end timestep


start timestep kper="2" kstp="19" mode="normal"


Time-series controlled values in stress period: 2, time step 19:
"CSUB" package: Boundary 1, SIG0 value from time series "LOAD" =  0.84995    


end timestep


start timestep kper="2" kstp="20" mode="normal"


Time-series controlled values in stress period: 2, time step 20:
"CSUB" package: Boundary 1, SIG0 value from time series "LOAD" =  0.84944    


end timestep


start timestep kper="2" kstp="21" mode="normal"


Time-series controlled values in stress period: 2, time step 21:
"CSUB" package: Boundary 1, SIG0 value from time series "LOAD" =  0.85126    


end timestep


start timestep kper="2" kstp="22" mode="normal"


Time-series controlled values in stress period: 2, time step 22:
"CSUB" package: Boundary 1, SIG0 value from time series "LOAD" =  0.85769    


end timestep


start timestep kper="2" kstp="23" mode="normal"


Time-series controlled values in stress period: 2, time step 23:
"CSUB" package: Boundary 1, SIG0 value from time series "LOAD" =  0.86924    


end timestep


start timestep kper="2" kstp="24" mode="normal"


Time-series controlled values in stress period: 2, time step 24:
"CSUB" package: Boundary 1, SIG0 value from time series "LOAD" =  0.88600    


end timestep


start timestep kper="2" kstp="25" mode="normal"


Time-series controlled values in stress period: 2, time step 25:
"CSUB" package: Boundary 1, SIG0 value from time series "LOAD" =  0.90977    


end timestep


start timestep kper="2" kstp="26" mode="normal"


Time-series controlled values in stress period: 2, time step 26:
"CSUB" package: Boundary 1, SIG0 value from time series "LOAD" =  0.94113    


end timestep


start timestep kper="2" kstp="27" mode="normal"


Time-series controlled values in stress period: 2, time step 27:
"CSUB" package: Boundary 1, SIG0 value from time series "LOAD" =  0.97663    


end timestep


start timestep kper="2" kstp="28" mode="normal"


Time-series controlled values in stress period: 2, time step 28:
"CSUB" package: Boundary 1, SIG0 value from time series "LOAD" =   1.0157    


end timestep


start timestep kper="2" kstp="29" mode="normal"


Time-series controlled values in stress period: 2, time step 29:
"CSUB" package: Boundary 1, SIG0 value from time series "LOAD" =   1.0633    


end timestep


start timestep kper="2" kstp="30" mode="normal"


Time-series controlled values in stress period: 2, time step 30:
"CSUB" package: Boundary 1, SIG0 value from time series "LOAD" =   1.1199    


end timestep


start timestep kper="2" kstp="31" mode="normal"


Time-series controlled values in stress period: 2, time step 31:
"CSUB" package: Boundary 1, SIG0 value from time series "LOAD" =   1.1794    


end timestep


start timestep kper="2" kstp="32" mode="normal"


Time-series controlled values in stress period: 2, time step 32:
"CSUB" package: Boundary 1, SIG0 value from time series "LOAD" =   1.2410    


end timestep


start timestep kper="2" kstp="33" mode="normal"


Time-series controlled values in stress period: 2, time step 33:
"CSUB" package: Boundary 1, SIG0 value from time series "LOAD" =   1.3127    


end timestep


start timestep kper="2" kstp="34" mode="normal"


Time-series controlled values in stress period: 2, time step 34:
"CSUB" package: Boundary 1, SIG0 value from time series "LOAD" =   1.3949    


end timestep


start timestep kper="2" kstp="35" mode="normal"


Time-series controlled values in stress period: 2, time step 35:
"CSUB" package: Boundary 1, SIG0 value from time series "LOAD" =   1.4786    


end timestep


start timestep kper="2" kstp="36" mode="normal"


Time-series controlled values in stress period: 2, time step 36:
"CSUB" package: Boundary 1, SIG0 value from time series "LOAD" =   1.5632    


end timestep


start timestep kper="2" kstp="37" mode="normal"


Time-series controlled values in stress period: 2, time step 37:
"CSUB" package: Boundary 1, SIG0 value from time series "LOAD" =   1.6532    


end timestep


start timestep kper="2" kstp="38" mode="normal"


Time-series controlled values in stress period: 2, time step 38:
"CSUB" package: Boundary 1, SIG0 value from time series "LOAD" =   1.7551    


end timestep


start timestep kper="2" kstp="39" mode="normal"


Time-series controlled values in stress period: 2, time step 39:
"CSUB" package: Boundary 1, SIG0 value from time series "LOAD" =   1.8694    


end timestep


start timestep kper="2" kstp="40" mode="normal"


Time-series controlled values in stress period: 2, time step 40:
"CSUB" package: Boundary 1, SIG0 value from time series "LOAD" =   1.9835    


end timestep


start timestep kper="2" kstp="41" mode="normal"


Time-series controlled values in stress period: 2, time step 41:
"CSUB" package: Boundary 1, SIG0 value from time series "LOAD" =   2.0968    


end timestep


start timestep kper="2" kstp="42" mode="normal"


Time-series controlled values in stress period: 2, time step 42:
"CSUB" package: Boundary 1, SIG0 value from time series "LOAD" =   2.2234    


end timestep


start timestep kper="2" kstp="43" mode="normal"


Time-series controlled values in stress period: 2, time step 43:
"CSUB" package: Boundary 1, SIG0 value from time series "LOAD" =   2.3638    


end timestep


start timestep kper="2" kstp="44" mode="normal"


Time-series controlled values in stress period: 2, time step 44:
"CSUB" package: Boundary 1, SIG0 value from time series "LOAD" =   2.5006    


end timestep


start timestep kper="2" kstp="45" mode="normal"


Time-series controlled values in stress period: 2, time step 45:
"CSUB" package: Boundary 1, SIG0 value from time series "LOAD" =   2.6288    


end timestep


start timestep kper="2" kstp="46" mode="normal"


Time-series controlled values in stress period: 2, time step 46:
"CSUB" package: Boundary 1, SIG0 value from time series "LOAD" =   2.7509    


end timestep


start timestep kper="2" kstp="47" mode="normal"


Time-series controlled values in stress period: 2, time step 47:
"CSUB" package: Boundary 1, SIG0 value from time series "LOAD" =   2.8672    


end timestep


start timestep kper="2" kstp="48" mode="normal"


Time-series controlled values in stress period: 2, time step 48:
"CSUB" package: Boundary 1, SIG0 value from time series "LOAD" =   2.9717    


end timestep


start timestep kper="2" kstp="49" mode="normal"


Time-series controlled values in stress period: 2, time step 49:
"CSUB" package: Boundary 1, SIG0 value from time series "LOAD" =   3.0519    


end timestep


start timestep kper="2" kstp="50" mode="normal"


Time-series controlled values in stress period: 2, time step 50:
"CSUB" package: Boundary 1, SIG0 value from time series "LOAD" =   3.1108    


end timestep


start timestep kper="2" kstp="51" mode="normal"


Time-series controlled values in stress period: 2, time step 51:
"CSUB" package: Boundary 1, SIG0 value from time series "LOAD" =   3.1575    


end timestep


start timestep kper="2" kstp="52" mode="normal"


Time-series controlled values in stress period: 2, time step 52:
"CSUB" package: Boundary 1, SIG0 value from time series "LOAD" =   3.1920    


end timestep


start timestep kper="2" kstp="53" mode="normal"


Time-series controlled values in stress period: 2, time step 53:
"CSUB" package: Boundary 1, SIG0 value from time series "LOAD" =   3.2116    


end timestep


start timestep kper="2" kstp="54" mode="normal"


Time-series controlled values in stress period: 2, time step 54:
"CSUB" package: Boundary 1, SIG0 value from time series "LOAD" =   3.2188    


end timestep


start timestep kper="2" kstp="55" mode="normal"


Time-series controlled values in stress period: 2, time step 55:
"CSUB" package: Boundary 1, SIG0 value from time series "LOAD" =   3.2156    


end timestep


start timestep kper="2" kstp="56" mode="normal"


Time-series controlled values in stress period: 2, time step 56:
"CSUB" package: Boundary 1, SIG0 value from time series "LOAD" =   3.2024    


end timestep


start timestep kper="2" kstp="57" mode="normal"


Time-series controlled values in stress period: 2, time step 57:
"CSUB" package: Boundary 1, SIG0 value from time series "LOAD" =   3.1822    


end timestep


start timestep kper="2" kstp="58" mode="normal"


Time-series controlled values in stress period: 2, time step 58:
"CSUB" package: Boundary 1, SIG0 value from time series "LOAD" =   3.1576    


end timestep


start timestep kper="2" kstp="59" mode="normal"


Time-series controlled values in stress period: 2, time step 59:
"CSUB" package: Boundary 1, SIG0 value from time series "LOAD" =   3.1295    


end timestep


start timestep kper="2" kstp="60" mode="normal"


Time-series controlled values in stress period: 2, time step 60:
"CSUB" package: Boundary 1, SIG0 value from time series "LOAD" =   3.0972    


end timestep


start timestep kper="2" kstp="61" mode="normal"


Time-series controlled values in stress period: 2, time step 61:
"CSUB" package: Boundary 1, SIG0 value from time series "LOAD" =   3.0607    


end timestep


start timestep kper="2" kstp="62" mode="normal"


Time-series controlled values in stress period: 2, time step 62:
"CSUB" package: Boundary 1, SIG0 value from time series "LOAD" =   3.0239    


end timestep


start timestep kper="2" kstp="63" mode="normal"


Time-series controlled values in stress period: 2, time step 63:
"CSUB" package: Boundary 1, SIG0 value from time series "LOAD" =   2.9865    


end timestep


start timestep kper="2" kstp="64" mode="normal"


Time-series controlled values in stress period: 2, time step 64:
"CSUB" package: Boundary 1, SIG0 value from time series "LOAD" =   2.9434    


end timestep


start timestep kper="2" kstp="65" mode="normal"


Time-series controlled values in stress period: 2, time step 65:
"CSUB" package: Boundary 1, SIG0 value from time series "LOAD" =   2.8937    


end timestep


start timestep kper="2" kstp="66" mode="normal"


Time-series controlled values in stress period: 2, time step 66:
"CSUB" package: Boundary 1, SIG0 value from time series "LOAD" =   2.8427    


end timestep


start timestep kper="2" kstp="67" mode="normal"


Time-series controlled values in stress period: 2, time step 67:
"CSUB" package: Boundary 1, SIG0 value from time series "LOAD" =   2.7903    


end timestep


start timestep kper="2" kstp="68" mode="normal"


Time-series controlled values in stress period: 2, time step 68:
"CSUB" package: Boundary 1, SIG0 value from time series "LOAD" =   2.7291    


end timestep


start timestep kper="2" kstp="69" mode="normal"


Time-series controlled values in stress period: 2, time step 69:
"CSUB" package: Boundary 1, SIG0 value from time series "LOAD" =   2.6568    


end timestep


start timestep kper="2" kstp="70" mode="normal"


Time-series controlled values in stress period: 2, time step 70:
"CSUB" package: Boundary 1, SIG0 value from time series "LOAD" =   2.5793    


end timestep


start timestep kper="2" kstp="71" mode="normal"


Time-series controlled values in stress period: 2, time step 71:
"CSUB" package: Boundary 1, SIG0 value from time series "LOAD" =   2.4955    


end timestep


start timestep kper="2" kstp="72" mode="normal"


Time-series controlled values in stress period: 2, time step 72:
"CSUB" package: Boundary 1, SIG0 value from time series "LOAD" =   2.4007    


end timestep


start timestep kper="2" kstp="73" mode="normal"


Time-series controlled values in stress period: 2, time step 73:
"CSUB" package: Boundary 1, SIG0 value from time series "LOAD" =   2.2903    


end timestep


start timestep kper="2" kstp="74" mode="normal"


Time-series controlled values in stress period: 2, time step 74:
"CSUB" package: Boundary 1, SIG0 value from time series "LOAD" =   2.1677    


end timestep


start timestep kper="2" kstp="75" mode="normal"


Time-series controlled values in stress period: 2, time step 75:
"CSUB" package: Boundary 1, SIG0 value from time series "LOAD" =   2.0506    


end timestep


start timestep kper="2" kstp="76" mode="normal"


Time-series controlled values in stress period: 2, time step 76:
"CSUB" package: Boundary 1, SIG0 value from time series "LOAD" =   1.9419    


end timestep


start timestep kper="2" kstp="77" mode="normal"


Time-series controlled values in stress period: 2, time step 77:
"CSUB" package: Boundary 1, SIG0 value from time series "LOAD" =   1.8283    


end timestep


start timestep kper="2" kstp="78" mode="normal"


Time-series controlled values in stress period: 2, time step 78:
"CSUB" package: Boundary 1, SIG0 value from time series "LOAD" =   1.7093    


end timestep


start timestep kper="2" kstp="79" mode="normal"


Time-series controlled values in stress period: 2, time step 79:
"CSUB" package: Boundary 1, SIG0 value from time series "LOAD" =   1.5973    


end timestep


start timestep kper="2" kstp="80" mode="normal"


Time-series controlled values in stress period: 2, time step 80:
"CSUB" package: Boundary 1, SIG0 value from time series "LOAD" =   1.4919    


end timestep


start timestep kper="2" kstp="81" mode="normal"


Time-series controlled values in stress period: 2, time step 81:
"CSUB" package: Boundary 1, SIG0 value from time series "LOAD" =   1.3868    


end timestep


start timestep kper="2" kstp="82" mode="normal"


Time-series controlled values in stress period: 2, time step 82:
"CSUB" package: Boundary 1, SIG0 value from time series "LOAD" =   1.2764    


end timestep


start timestep kper="2" kstp="83" mode="normal"


Time-series controlled values in stress period: 2, time step 83:
"CSUB" package: Boundary 1, SIG0 value from time series "LOAD" =   1.1620    


end timestep


start timestep kper="2" kstp="84" mode="normal"


Time-series controlled values in stress period: 2, time step 84:
"CSUB" package: Boundary 1, SIG0 value from time series "LOAD" =   1.0573    


end timestep


start timestep kper="2" kstp="85" mode="normal"


Time-series controlled values in stress period: 2, time step 85:
"CSUB" package: Boundary 1, SIG0 value from time series "LOAD" =  0.96337    


end timestep


start timestep kper="2" kstp="86" mode="normal"


Time-series controlled values in stress period: 2, time step 86:
"CSUB" package: Boundary 1, SIG0 value from time series "LOAD" =  0.87013    


end timestep


start timestep kper="2" kstp="87" mode="normal"


Time-series controlled values in stress period: 2, time step 87:
"CSUB" package: Boundary 1, SIG0 value from time series "LOAD" =  0.77992    


end timestep


start timestep kper="2" kstp="88" mode="normal"


Time-series controlled values in stress period: 2, time step 88:
"CSUB" package: Boundary 1, SIG0 value from time series "LOAD" =  0.70370    


end timestep


start timestep kper="2" kstp="89" mode="normal"


Time-series controlled values in stress period: 2, time step 89:
"CSUB" package: Boundary 1, SIG0 value from time series "LOAD" =  0.64019    


end timestep


start timestep kper="2" kstp="90" mode="normal"


Time-series controlled values in stress period: 2, time step 90:
"CSUB" package: Boundary 1, SIG0 value from time series "LOAD" =  0.57993    


end timestep


start timestep kper="2" kstp="91" mode="normal"


Time-series controlled values in stress period: 2, time step 91:
"CSUB" package: Boundary 1, SIG0 value from time series "LOAD" =  0.52212    


end timestep


start timestep kper="2" kstp="92" mode="normal"


Time-series controlled values in stress period: 2, time step 92:
"CSUB" package: Boundary 1, SIG0 value from time series "LOAD" =  0.47215    


end timestep


start timestep kper="2" kstp="93" mode="normal"


Time-series controlled values in stress period: 2, time step 93:
"CSUB" package: Boundary 1, SIG0 value from time series "LOAD" =  0.42909    


end timestep


start timestep kper="2" kstp="94" mode="normal"


Time-series controlled values in stress period: 2, time step 94:
"CSUB" package: Boundary 1, SIG0 value from time series "LOAD" =  0.38948    


end timestep


start timestep kper="2" kstp="95" mode="normal"


Time-series controlled values in stress period: 2, time step 95:
"CSUB" package: Boundary 1, SIG0 value from time series "LOAD" =  0.35113    


end timestep


start timestep kper="2" kstp="96" mode="normal"


Time-series controlled values in stress period: 2, time step 96:
"CSUB" package: Boundary 1, SIG0 value from time series "LOAD" =  0.31439    


end timestep


start timestep kper="2" kstp="97" mode="normal"


Time-series controlled values in stress period: 2, time step 97:
"CSUB" package: Boundary 1, SIG0 value from time series "LOAD" =  0.28347    


end timestep


start timestep kper="2" kstp="98" mode="normal"


Time-series controlled values in stress period: 2, time step 98:
"CSUB" package: Boundary 1, SIG0 value from time series "LOAD" =  0.25814    


end timestep


start timestep kper="2" kstp="99" mode="normal"


Time-series controlled values in stress period: 2, time step 99:
"CSUB" package: Boundary 1, SIG0 value from time series "LOAD" =  0.23538    


end timestep


start timestep kper="2" kstp="100" mode="normal"


Time-series controlled values in stress period: 2, time step 100:
"CSUB" package: Boundary 1, SIG0 value from time series "LOAD" =  0.21522    


end timestep


start timestep kper="2" kstp="101" mode="normal"


Time-series controlled values in stress period: 2, time step 101:
"CSUB" package: Boundary 1, SIG0 value from time series "LOAD" =  0.19855    


end timestep


start timestep kper="2" kstp="102" mode="normal"


Time-series controlled values in stress period: 2, time step 102:
"CSUB" package: Boundary 1, SIG0 value from time series "LOAD" =  0.18320    


end timestep


start timestep kper="2" kstp="103" mode="normal"


Time-series controlled values in stress period: 2, time step 103:
"CSUB" package: Boundary 1, SIG0 value from time series "LOAD" =  0.16498    


end timestep


start timestep kper="2" kstp="104" mode="normal"


Time-series controlled values in stress period: 2, time step 104:
"CSUB" package: Boundary 1, SIG0 value from time series "LOAD" =  0.14294    


end timestep


start timestep kper="2" kstp="105" mode="normal"


Time-series controlled values in stress period: 2, time step 105:
"CSUB" package: Boundary 1, SIG0 value from time series "LOAD" =  0.12098    


end timestep


start timestep kper="2" kstp="106" mode="normal"


Time-series controlled values in stress period: 2, time step 106:
"CSUB" package: Boundary 1, SIG0 value from time series "LOAD" =  0.10184    


end timestep


start timestep kper="2" kstp="107" mode="normal"


Time-series controlled values in stress period: 2, time step 107:
"CSUB" package: Boundary 1, SIG0 value from time series "LOAD" =  0.86511E-01


end timestep


start timestep kper="2" kstp="108" mode="normal"


Time-series controlled values in stress period: 2, time step 108:
"CSUB" package: Boundary 1, SIG0 value from time series "LOAD" =  0.75129E-01


end timestep


start timestep kper="2" kstp="109" mode="normal"


Time-series controlled values in stress period: 2, time step 109:
"CSUB" package: Boundary 1, SIG0 value from time series "LOAD" =  0.65792E-01


end timestep


start timestep kper="2" kstp="110" mode="normal"


Time-series controlled values in stress period: 2, time step 110:
"CSUB" package: Boundary 1, SIG0 value from time series "LOAD" =  0.56306E-01


end timestep


start timestep kper="2" kstp="111" mode="normal"


Time-series controlled values in stress period: 2, time step 111:
"CSUB" package: Boundary 1, SIG0 value from time series "LOAD" =  0.44510E-01


end timestep


start timestep kper="2" kstp="112" mode="normal"


Time-series controlled values in stress period: 2, time step 112:
"CSUB" package: Boundary 1, SIG0 value from time series "LOAD" =  0.29399E-01


end timestep


start timestep kper="2" kstp="113" mode="normal"


Time-series controlled values in stress period: 2, time step 113:
"CSUB" package: Boundary 1, SIG0 value from time series "LOAD" =  0.13205E-01


end timestep


start timestep kper="2" kstp="114" mode="normal"


Time-series controlled values in stress period: 2, time step 114:
"CSUB" package: Boundary 1, SIG0 value from time series "LOAD" =  0.27009E-02


end timestep


start timestep kper="2" kstp="115" mode="normal"


Time-series controlled values in stress period: 2, time step 115:
"CSUB" package: Boundary 1, SIG0 value from time series "LOAD" =   0.0000    


end timestep


start timestep kper="2" kstp="116" mode="normal"


Time-series controlled values in stress period: 2, time step 116:
"CSUB" package: Boundary 1, SIG0 value from time series "LOAD" =   0.0000    


end timestep


start timestep kper="2" kstp="117" mode="normal"


Time-series controlled values in stress period: 2, time step 117:
"CSUB" package: Boundary 1, SIG0 value from time series "LOAD" =   0.0000    

1
  HEAD IN LAYER   1 AT END OF TIME STEP 117 IN STRESS PERIOD    2
  ---------------------------------------------------------------------------

            1           2           3           4           5           6           7           8           9          10
           11          12          13          14          15          16          17          18          19          20
           21          22          23          24          25          26          27          28          29          30
           31          32          33          34          35
 ....................................................................................................................................................................................................................................................................................................................................................................................................................................
   1   -10.70      -10.70      -10.70      -10.70      -10.70      -10.70      -10.70      -10.70      -10.70      -10.70    
       -10.70      -10.70      -10.70      -10.70      -10.70      -10.70      -10.70      -10.70      -10.70      -10.70    
       -10.70      -10.70      -10.70      -10.70      -10.70      -10.70      -10.70      -10.70      -10.70      -10.70    
       -10.70      -10.70      -10.70      -10.70      -10.70    
1
  HEAD IN LAYER   2 AT END OF TIME STEP 117 IN STRESS PERIOD    2
  ---------------------------------------------------------------------------

            1           2           3           4           5           6           7           8           9          10
           11          12          13          14          15          16          17          18          19          20
           21          22          23          24          25          26          27          28          29          30
           31          32          33          34          35
 ....................................................................................................................................................................................................................................................................................................................................................................................................................................
   1   -11.55      -10.70      -10.70      -10.70      -10.70      -10.70      -10.70      -10.70      -10.70      -10.70    
       -10.70      -10.70      -10.70      -10.70      -10.70      -10.70      -10.70      -10.70      -10.70      -10.70    
       -10.70      -10.70      -10.70      -10.70      -10.70      -10.70      -10.70      -10.70      -10.70      -10.70    
       -10.70      -10.70      -10.70      -10.70      -10.70    
1
  HEAD IN LAYER   3 AT END OF TIME STEP 117 IN STRESS PERIOD    2
  ---------------------------------------------------------------------------

            1           2           3           4           5           6           7           8           9          10
           11          12          13          14          15          16          17          18          19          20
           21          22          23          24          25          26          27          28          29          30
           31          32          33          34          35
 ....................................................................................................................................................................................................................................................................................................................................................................................................................................
   1   -10.71      -10.71      -10.71      -10.71      -10.71      -10.71      -10.71      -10.71      -10.71      -10.71    
       -10.70      -10.70      -10.70      -10.70      -10.70      -10.70      -10.70      -10.70      -10.70      -10.70    
       -10.70      -10.70      -10.70      -10.70      -10.70      -10.70      -10.70      -10.70      -10.70      -10.70    
       -10.70      -10.70      -10.70      -10.70      -10.70    


  VOLUME BUDGET FOR ENTIRE MODEL AT END OF TIME STEP  117, STRESS PERIOD   2
  ---------------------------------------------------------------------------------------------------

     CUMULATIVE VOLUME      L**3       RATES FOR THIS TIME STEP      L**3/T          PACKAGE NAME    
     ------------------                 ------------------------                     ----------------

           IN:                                      IN:
           ---                                      ---
              STO-SS =           0.0000                STO-SS =           0.0000     STORAGE                          
              STO-SY =       7.8603E-03                STO-SY =       2.3448E-06     STORAGE                          
      CSUB-CGELASTIC =       8.7633E-03        CSUB-CGELASTIC =       2.4343E-06     CSUB                             
      CSUB-WATERCOMP =       4.0114E-03        CSUB-WATERCOMP =       5.8598E-06     CSUB                             

            TOTAL IN =       2.0635E-02              TOTAL IN =       1.0639E-05

          OUT:                                     OUT:
          ----                                     ----
              STO-SS =           0.0000                STO-SS =           0.0000     STORAGE                          
              STO-SY =       5.6555E-03                STO-SY =       2.3421E-06     STORAGE                          
      CSUB-CGELASTIC =       1.1988E-02        CSUB-CGELASTIC =       2.4408E-06     CSUB                             
      CSUB-WATERCOMP =       2.9912E-03        CSUB-WATERCOMP =       5.8560E-06     CSUB                             

           TOTAL OUT =       2.0635E-02             TOTAL OUT =       1.0639E-05

            IN - OUT =      -4.0738E-09              IN - OUT =      -6.2890E-13

 PERCENT DISCREPANCY =          -0.00     PERCENT DISCREPANCY =          -0.00




         TIME SUMMARY AT END OF TIME STEP  117 IN STRESS PERIOD    2
                    SECONDS     MINUTES      HOURS       DAYS        YEARS
                    -----------------------------------------------------------
   TIME STEP LENGTH 0.50000     8.33333E-03 1.38889E-04 5.78704E-06 1.58440E-08
 STRESS PERIOD TIME  58.500     0.97500     1.62500E-02 6.77083E-04 1.85375E-06
         TOTAL TIME  59.000     0.98333     1.63889E-02 6.82870E-04 1.86960E-06


end timestep


 COARSE-GRAINED STORAGE PERCENT COMPACTION WAS LESS THAN 1 PERCENT IN ALL CELLS
