                                   MODFLOW 6
                U.S. GEOLOGICAL SURVEY MODULAR HYDROLOGIC MODEL
                          GROUNDWATER FLOW MODEL (GWF)
                            VERSION 6.5.0 05/23/2024

   MODFLOW 6 compiled Jun 21 2024 02:57:23 with Intel(R) Fortran Intel(R) 64
   Compiler Classic for applications running on Intel(R) 64, Version 2021.7.0
                             Build 20220726_000000

This software has been approved for release by the U.S. Geological 
Survey (USGS). Although the software has been subjected to rigorous 
review, the USGS reserves the right to update the software as needed 
pursuant to further analysis and review. No warranty, expressed or 
implied, is made by the USGS or the U.S. Government as to the 
functionality of the software and related material nor shall the 
fact of release constitute any such warranty. Furthermore, the 
software is released on condition that neither the USGS nor the U.S. 
Government shall be held liable for any damages resulting from its 
authorized or unauthorized use. Also refer to the USGS Water 
Resources Software User Rights Notice for complete use, copyright, 
and distribution information.


As a work of the United States Government, this USGS product is 
in the public domain within the United States. You can copy, 
modify, distribute, and perform the work, even for commercial 
purposes, all without asking permission. Additionally, USGS 
waives copyright and related rights in the work worldwide 
through CC0 1.0 Universal Public Domain Dedication 
(https://creativecommons.org/publicdomain/zero/1.0/).

The following GNU Lesser General Public License (LGPL) libraries
are used in this USGS product:

    SPARSKIT version 2.0
      ilut, luson, and qsplit 
      (https://www-users.cse.umn.edu/~saad/software/SPARSKIT/)

    RCM - Reverse Cuthill McKee Ordering
      (https://people.math.sc.edu/Burkardt/f_src/rcm/rcm.html)

    BLAS - Basic Linear Algebra Subprograms Level 1
      (https://people.math.sc.edu/Burkardt/f_src/blas1_d/blas1_d.html)

    SPARSEKIT - Sparse Matrix Utility Package
      amux, dperm, dvperm, rperm, and cperm
      (https://people.sc.fsu.edu/~jburkardt/f77_src/sparsekit/sparsekit.html)

The following BSD-3 License libraries are used in this USGS product:

    Modern Fortran DAG Library
      Copyright (c) 2018, Jacob Williams
      All rights reserved.
      (https://github.com/jacobwilliams/daglib)

MODFLOW 6 compiler options: /O2 /heap-arrays:0 /fpe:0 /traceback /nologo /fpp
/c /module:win64\mod_mf6\ /object:win64\obj_mf6\

System command used to initiate simulation:
mf6.exe

MODFLOW was compiled using uniform precision.

Real Variables
  KIND: 8
  TINY (smallest non-zero value):    2.225074-308
  HUGE (largest value):    1.797693+308
  PRECISION: 15
  SIZE IN BITS: 64

Integer Variables
  KIND: 4
  HUGE (largest value): 2147483647
  SIZE IN BITS: 32

Long Integer Variables
  KIND: 8
  HUGE (largest value): 9223372036854775807
  SIZE IN BITS: 64

Logical Variables
  KIND: 4
  SIZE IN BITS: 32
 
 NAMEFILE OPTIONS:
    NEWTON-RAPHSON method enabled for the model.
 END NAMEFILE OPTIONS:

 DIS -- STRUCTURED GRID DISCRETIZATION PACKAGE, VERSION 2 : 3/27/2014 - INPUT READ FROM MEMPATH: __INPUT__/FREYBERG6/DIS                           


 NPF -- NODE PROPERTY FLOW PACKAGE, VERSION 1, 3/30/2015 INPUT READ FROM MEMPATH: __INPUT__/FREYBERG6/NPF                           


 IC -- Initial Conditions Package, Version 8, 3/28/2015 input read from mempath: __INPUT__/FREYBERG6/IC                            


 Setting Discretization Options
    Model length unit [0=UND, 1=FEET, 2=METERS, 3=CENTIMETERS] set as 2
 End Setting Discretization Options

 Setting Discretization Dimensions
    NLAY = 3
    NROW = 40
    NCOL = 20
 End Setting Discretization Dimensions

 Setting Discretization Griddata
    DELR set from input file
    DELC set from input file
    TOP set from input file
    BOTM set from input file
    IDOMAIN set from input file
 End Setting Discretization Griddata


 The specified IDOMAIN results in a reduced number of cells.
 Number of user nodes: 2400
 Number of nodes in solution: 2118


 Setting NPF Options
    Cell-by-cell flow information will be saved to binary file whenever ICBCFL is not zero.
 End Setting NPF Options

 Setting NPF Griddata
    ICELLTYPE set from input file
    K set from input file
    K33 set from input file
    K22 not provided.  Setting K22 = K.
 End Setting NPF Griddata


 WEL   -- WEL PACKAGE, VERSION 8, 2/22/2014 INPUT READ FROM MEMPATH: __INPUT__/FREYBERG6/WEL-1                         

 PROCESSING WEL BASE OPTIONS
    FLOWS WILL BE SAVED TO BUDGET FILE SPECIFIED IN OUTPUT CONTROL
    LISTS OF WEL CELLS WILL BE PRINTED.
    WEL FLOWS WILL BE PRINTED TO LISTING FILE.
 END OF WEL BASE OPTIONS

 PROCESSING WEL OPTIONS
 END OF WEL OPTIONS

 PROCESSING WEL BASE DIMENSIONS
    MAXBOUND =       6
 END OF WEL BASE DIMENSIONS

 GHB   -- GHB PACKAGE, VERSION 8, 2/22/2014 INPUT READ FROM MEMPATH: __INPUT__/FREYBERG6/GHB-1                         

 PROCESSING GHB BASE OPTIONS
    FLOWS WILL BE SAVED TO BUDGET FILE SPECIFIED IN OUTPUT CONTROL
    LISTS OF GHB CELLS WILL BE PRINTED.
    GHB FLOWS WILL BE PRINTED TO LISTING FILE.
 END OF GHB BASE OPTIONS

 PROCESSING GHB OPTIONS
 END OF GHB OPTIONS

 PROCESSING GHB BASE DIMENSIONS
    MAXBOUND =      30
 END OF GHB BASE DIMENSIONS

 RCH   -- RCH PACKAGE, VERSION 8, 2/22/2014 INPUT READ FROM MEMPATH: __INPUT__/FREYBERG6/RCH-1                         

 PROCESSING RCH BASE OPTIONS
    FLOWS WILL BE SAVED TO BUDGET FILE SPECIFIED IN OUTPUT CONTROL
 END OF RCH BASE OPTIONS

 PROCESSING RCHA OPTIONS
    RECHARGE INPUT WILL BE READ AS ARRAY(S).
 END OF RCHA OPTIONS

 SFR   -- SFR PACKAGE, VERSION 8, 2/22/2014 INPUT READ FROM UNIT 1035

 PROCESSING SFR OPTIONS
    SFR BOUNDARIES HAVE NAMES IN LAST COLUMN.
    LISTS OF SFR CELLS WILL BE PRINTED.
    FLOWS WILL BE SAVED TO BUDGET FILE SPECIFIED IN OUTPUT CONTROL

 OPENED sfr.obs
 FILE TYPE:OBS   UNIT 1038   STATUS:OLD                 
 FORMAT:FORMATTED              ACCESS:SEQUENTIAL          
 ACTION:READ                

    MAXIMUM DEPTH CHANGE VALUE (.1000000000000000E-03) SPECIFIED.
 END OF SFR OPTIONS

 PROCESSING SFR DIMENSIONS
    NREACHES = 40
 END OF SFR DIMENSIONS

 OPENED freyberg6.sfr_packagedata.txt
 FILE TYPE:OPEN/CLOSE   UNIT 1039   STATUS:OLD                 
 FORMAT:FORMATTED              ACCESS:SEQUENTIAL          
 ACTION:READ                


 PROCESSING SFR PACKAGEDATA
 END OF SFR PACKAGEDATA

 OPENED freyberg6.sfr_connectiondata.txt
 FILE TYPE:OPEN/CLOSE   UNIT 1040   STATUS:OLD                 
 FORMAT:FORMATTED              ACCESS:SEQUENTIAL          
 ACTION:READ                


 PROCESSING SFR CONNECTIONDATA
 END OF SFR CONNECTIONDATA
    STRT set from input file

 STO -- STORAGE PACKAGE, VERSION 1, 5/19/2014 INPUT READ FROM UNIT 1024


 PROCESSING STORAGE OPTIONS
 END OF STORAGE OPTIONS
 PROCESSING GRIDDATA

 OPENED freyberg6.sto_iconvert_layer1.txt
 FILE TYPE:OPEN/CLOSE   UNIT 1043   STATUS:OLD                 
 FORMAT:FORMATTED              ACCESS:SEQUENTIAL          
 ACTION:READ                


 OPENED freyberg6.sto_iconvert_layer2.txt
 FILE TYPE:OPEN/CLOSE   UNIT 1044   STATUS:OLD                 
 FORMAT:FORMATTED              ACCESS:SEQUENTIAL          
 ACTION:READ                


 OPENED freyberg6.sto_iconvert_layer3.txt
 FILE TYPE:OPEN/CLOSE   UNIT 1045   STATUS:OLD                 
 FORMAT:FORMATTED              ACCESS:SEQUENTIAL          
 ACTION:READ                


 OPENED freyberg6.sto_ss_layer1.txt
 FILE TYPE:OPEN/CLOSE   UNIT 1046   STATUS:OLD                 
 FORMAT:FORMATTED              ACCESS:SEQUENTIAL          
 ACTION:READ                


 OPENED freyberg6.sto_ss_layer2.txt
 FILE TYPE:OPEN/CLOSE   UNIT 1047   STATUS:OLD                 
 FORMAT:FORMATTED              ACCESS:SEQUENTIAL          
 ACTION:READ                


 OPENED freyberg6.sto_ss_layer3.txt
 FILE TYPE:OPEN/CLOSE   UNIT 1048   STATUS:OLD                 
 FORMAT:FORMATTED              ACCESS:SEQUENTIAL          
 ACTION:READ                


 OPENED freyberg6.sto_sy_layer1.txt
 FILE TYPE:OPEN/CLOSE   UNIT 1049   STATUS:OLD                 
 FORMAT:FORMATTED              ACCESS:SEQUENTIAL          
 ACTION:READ                


 OPENED freyberg6.sto_sy_layer2.txt
 FILE TYPE:OPEN/CLOSE   UNIT 1050   STATUS:OLD                 
 FORMAT:FORMATTED              ACCESS:SEQUENTIAL          
 ACTION:READ                


 OPENED freyberg6.sto_sy_layer3.txt
 FILE TYPE:OPEN/CLOSE   UNIT 1051   STATUS:OLD                 
 FORMAT:FORMATTED              ACCESS:SEQUENTIAL          
 ACTION:READ                

 END PROCESSING GRIDDATA

The observation utility is active for "FREYBERG6"

Processing observation options:

Text output number of digits of precision set to: 10
The PRINT_INPUT option has been specified.


 OBSERVATIONS READ FROM FILE "freyberg6.obs"
 ----------------------------------------------------------------------------------------------------------------------------------------------------------------------------------------------------------------------------
 NAME                                     TYPE                                       TIME         LOCATION DATA                              OUTPUT FILENAME                                                                 
 ----------------------------------------------------------------------------------------------------------------------------------------------------------------------------------------------------------------------------
 TRGW_2_2_15                              CONTINUOUS  HEAD                           ALL TIMES    "  3 3 16"                                 heads.csv                                                                       
 TRGW_2_2_9                               CONTINUOUS  HEAD                           ALL TIMES    "  3 3 10"                                 heads.csv                                                                       
 TRGW_2_3_8                               CONTINUOUS  HEAD                           ALL TIMES    "  3 4 9"                                  heads.csv                                                                       
 TRGW_2_9_1                               CONTINUOUS  HEAD                           ALL TIMES    "  3 10 2"                                 heads.csv                                                                       
 TRGW_2_13_10                             CONTINUOUS  HEAD                           ALL TIMES    "  3 14 11"                                heads.csv                                                                       
 TRGW_2_15_16                             CONTINUOUS  HEAD                           ALL TIMES    "  3 16 17"                                heads.csv                                                                       
 TRGW_2_21_10                             CONTINUOUS  HEAD                           ALL TIMES    "  3 22 11"                                heads.csv                                                                       
 TRGW_2_22_15                             CONTINUOUS  HEAD                           ALL TIMES    "  3 23 16"                                heads.csv                                                                       
 TRGW_2_24_4                              CONTINUOUS  HEAD                           ALL TIMES    "  3 25 5"                                 heads.csv                                                                       
 TRGW_2_26_6                              CONTINUOUS  HEAD                           ALL TIMES    "  3 27 7"                                 heads.csv                                                                       
 TRGW_2_29_15                             CONTINUOUS  HEAD                           ALL TIMES    "  3 30 16"                                heads.csv                                                                       
 TRGW_2_33_7                              CONTINUOUS  HEAD                           ALL TIMES    "  3 34 8"                                 heads.csv                                                                       
 TRGW_2_34_10                             CONTINUOUS  HEAD                           ALL TIMES    "  3 35 11"                                heads.csv                                                                       
 TRGW_0_2_15                              CONTINUOUS  HEAD                           ALL TIMES    "  1 3 16"                                 heads.csv                                                                       
 TRGW_0_2_9                               CONTINUOUS  HEAD                           ALL TIMES    "  1 3 10"                                 heads.csv                                                                       
 TRGW_0_3_8                               CONTINUOUS  HEAD                           ALL TIMES    "  1 4 9"                                  heads.csv                                                                       
 TRGW_0_9_1                               CONTINUOUS  HEAD                           ALL TIMES    "  1 10 2"                                 heads.csv                                                                       
 TRGW_0_13_10                             CONTINUOUS  HEAD                           ALL TIMES    "  1 14 11"                                heads.csv                                                                       
 TRGW_0_15_16                             CONTINUOUS  HEAD                           ALL TIMES    "  1 16 17"                                heads.csv                                                                       
 TRGW_0_21_10                             CONTINUOUS  HEAD                           ALL TIMES    "  1 22 11"                                heads.csv                                                                       
 TRGW_0_22_15                             CONTINUOUS  HEAD                           ALL TIMES    "  1 23 16"                                heads.csv                                                                       
 TRGW_0_24_4                              CONTINUOUS  HEAD                           ALL TIMES    "  1 25 5"                                 heads.csv                                                                       
 TRGW_0_26_6                              CONTINUOUS  HEAD                           ALL TIMES    "  1 27 7"                                 heads.csv                                                                       
 TRGW_0_29_15                             CONTINUOUS  HEAD                           ALL TIMES    "  1 30 16"                                heads.csv                                                                       
 TRGW_0_33_7                              CONTINUOUS  HEAD                           ALL TIMES    "  1 34 8"                                 heads.csv                                                                       
 TRGW_0_34_10                             CONTINUOUS  HEAD                           ALL TIMES    "  1 35 11"                                heads.csv                                                                       
 ----------------------------------------------------------------------------------------------------------------------------------------------------------------------------------------------------------------------------


    BINARY GRID INFORMATION WILL BE WRITTEN TO:
      UNIT NUMBER: 1053
      FILE NAME: freyberg6.dis.grb

 OPENED freyberg6.dis.grb
 FILE TYPE:DATA(BINARY)   UNIT 1053   STATUS:REPLACE             
 FORMAT:UNFORMATTED            ACCESS:STREAM              
 ACTION:READWRITE           

      THE LAST TIME STEP WILL BE PRINTED
      THE LAST TIME STEP WILL BE PRINTED

 PROCESSING OC OPTIONS

    BUDGET INFORMATION WILL BE WRITTEN TO:
      UNIT NUMBER: 1054
      FILE NAME: freyberg6_freyberg.cbc

 OPENED freyberg6_freyberg.cbc
 FILE TYPE:DATA(BINARY)   UNIT 1054   STATUS:REPLACE             
 FORMAT:UNFORMATTED            ACCESS:STREAM              
 ACTION:READWRITE           

    HEAD INFORMATION WILL BE WRITTEN TO:
      UNIT NUMBER: 1055
      FILE NAME: freyberg6_freyberg.hds

 OPENED freyberg6_freyberg.hds
 FILE TYPE:DATA(BINARY)   UNIT 1055   STATUS:REPLACE             
 FORMAT:UNFORMATTED            ACCESS:STREAM              
 ACTION:READWRITE           

 END OF OC OPTIONS

The observation utility is active for "SFR_1"

Processing observation options:



 SFR PACKAGE (SFR_1) STATIC REACH DATA
 ---------------------------------------------------------------------------------------------------------------------------------------
                                                                                                                              UPSTREAM  
   NUMBER   CELLID                  LENGTH       WIDTH        SLOPE         TOP       THICKNESS        HK       ROUGHNESS     FRACTION  
 ---------------------------------------------------------------------------------------------------------------------------------------
     1      (1,1,16)              250.00       5.0000       5.00000E-05  34.000       1.0000       0.10000      3.00000E-02  1.0000     
     2      (1,2,16)              250.00       5.0000       5.00000E-05  33.987       1.0000       0.10000      3.00000E-02  1.0000     
     3      (1,3,16)              250.00       5.0000       5.00000E-05  33.974       1.0000       0.10000      3.00000E-02  1.0000     
     4      (1,4,16)              250.00       5.0000       5.00000E-05  33.962       1.0000       0.10000      3.00000E-02  1.0000     
     5      (1,5,16)              250.00       5.0000       5.00000E-05  33.949       1.0000       0.10000      3.00000E-02  1.0000     
     6      (1,6,16)              250.00       5.0000       5.00000E-05  33.936       1.0000       0.10000      3.00000E-02  1.0000     
     7      (1,7,16)              250.00       5.0000       5.00000E-05  33.923       1.0000       0.10000      3.00000E-02  1.0000     
     8      (1,8,16)              250.00       5.0000       5.00000E-05  33.910       1.0000       0.10000      3.00000E-02  1.0000     
     9      (1,9,16)              250.00       5.0000       5.00000E-05  33.897       1.0000       0.10000      3.00000E-02  1.0000     
     10     (1,10,16)             250.00       5.0000       5.00000E-05  33.885       1.0000       0.10000      3.00000E-02  1.0000     
     11     (1,11,16)             250.00       5.0000       5.00000E-05  33.872       1.0000       0.10000      3.00000E-02  1.0000     
     12     (1,12,16)             250.00       5.0000       5.00000E-05  33.859       1.0000       0.10000      3.00000E-02  1.0000     
     13     (1,13,16)             250.00       5.0000       5.00000E-05  33.846       1.0000       0.10000      3.00000E-02  1.0000     
     14     (1,14,16)             250.00       5.0000       5.00000E-05  33.833       1.0000       0.10000      3.00000E-02  1.0000     
     15     (1,15,16)             250.00       5.0000       5.00000E-05  33.821       1.0000       0.10000      3.00000E-02  1.0000     
     16     (1,16,16)             250.00       5.0000       5.00000E-05  33.808       1.0000       0.10000      3.00000E-02  1.0000     
     17     (1,17,16)             250.00       5.0000       5.00000E-05  33.795       1.0000       0.10000      3.00000E-02  1.0000     
     18     (1,18,16)             250.00       5.0000       5.00000E-05  33.782       1.0000       0.10000      3.00000E-02  1.0000     
     19     (1,19,16)             250.00       5.0000       5.00000E-05  33.769       1.0000       0.10000      3.00000E-02  1.0000     
     20     (1,20,16)             250.00       5.0000       5.00000E-05  33.756       1.0000       0.10000      3.00000E-02  1.0000     
     21     (1,21,16)             250.00       5.0000       5.00000E-05  33.744       1.0000       0.10000      3.00000E-02  1.0000     
     22     (1,22,16)             250.00       5.0000       5.00000E-05  33.731       1.0000       0.10000      3.00000E-02  1.0000     
     23     (1,23,16)             250.00       5.0000       5.00000E-05  33.718       1.0000       0.10000      3.00000E-02  1.0000     
     24     (1,24,16)             250.00       5.0000       5.00000E-05  33.705       1.0000       0.10000      3.00000E-02  1.0000     
     25     (1,25,16)             250.00       5.0000       5.00000E-05  33.692       1.0000       0.10000      3.00000E-02  1.0000     
     26     (1,26,16)             250.00       5.0000       5.00000E-05  33.679       1.0000       0.10000      3.00000E-02  1.0000     
     27     (1,27,16)             250.00       5.0000       5.00000E-05  33.667       1.0000       0.10000      3.00000E-02  1.0000     
     28     (1,28,16)             250.00       5.0000       5.00000E-05  33.654       1.0000       0.10000      3.00000E-02  1.0000     
     29     (1,29,16)             250.00       5.0000       5.00000E-05  33.641       1.0000       0.10000      3.00000E-02  1.0000     
     30     (1,30,16)             250.00       5.0000       5.00000E-05  33.628       1.0000       0.10000      3.00000E-02  1.0000     
     31     (1,31,16)             250.00       5.0000       5.00000E-05  33.615       1.0000       0.10000      3.00000E-02  1.0000     
     32     (1,32,16)             250.00       5.0000       5.00000E-05  33.603       1.0000       0.10000      3.00000E-02  1.0000     
     33     (1,33,16)             250.00       5.0000       5.00000E-05  33.590       1.0000       0.10000      3.00000E-02  1.0000     
     34     (1,34,16)             250.00       5.0000       5.00000E-05  33.577       1.0000       0.10000      3.00000E-02  1.0000     
     35     (1,35,16)             250.00       5.0000       5.00000E-05  33.564       1.0000       0.10000      3.00000E-02  1.0000     
     36     (1,36,16)             250.00       5.0000       5.00000E-05  33.551       1.0000       0.10000      3.00000E-02  1.0000     
     37     (1,37,16)             250.00       5.0000       5.00000E-05  33.538       1.0000       0.10000      3.00000E-02  1.0000     
     38     (1,38,16)             250.00       5.0000       5.00000E-05  33.526       1.0000       0.10000      3.00000E-02  1.0000     
     39     (1,39,16)             250.00       5.0000       5.00000E-05  33.513       1.0000       0.10000      3.00000E-02  1.0000     
     40     (1,40,16)             250.00       5.0000       5.00000E-05  33.510       1.0000       0.10000      3.00000E-02  1.0000     
 ---------------------------------------------------------------------------------------------------------------------------------------



 SFR PACKAGE (SFR_1) STATIC REACH CONNECTION DATA
 --------------------------------
   REACH      CONN 1     CONN 2  
 --------------------------------
     1          2                
     2          1          3     
     3          2          4     
     4          3          5     
     5          4          6     
     6          5          7     
     7          6          8     
     8          7          9     
     9          8          10    
     10         9          11    
     11         10         12    
     12         11         13    
     13         12         14    
     14         13         15    
     15         14         16    
     16         15         17    
     17         16         18    
     18         17         19    
     19         18         20    
     20         19         21    
     21         20         22    
     22         21         23    
     23         22         24    
     24         23         25    
     25         24         26    
     26         25         27    
     27         26         28    
     28         27         29    
     29         28         30    
     30         29         31    
     31         30         32    
     32         31         33    
     33         32         34    
     34         33         35    
     35         34         36    
     36         35         37    
     37         36         38    
     38         37         39    
     39         38         40    
     40         39               
 --------------------------------



 SFR PACKAGE (SFR_1) STATIC UPSTREAM REACH CONNECTION DATA
 ---------------------
             UPSTREAM 
   REACH      CONN 1  
 ---------------------
     1                
     2          1     
     3          2     
     4          3     
     5          4     
     6          5     
     7          6     
     8          7     
     9          8     
     10         9     
     11         10    
     12         11    
     13         12    
     14         13    
     15         14    
     16         15    
     17         16    
     18         17    
     19         18    
     20         19    
     21         20    
     22         21    
     23         22    
     24         23    
     25         24    
     26         25    
     27         26    
     28         27    
     29         28    
     30         29    
     31         30    
     32         31    
     33         32    
     34         33    
     35         34    
     36         35    
     37         36    
     38         37    
     39         38    
     40         39    
 ---------------------



 SFR PACKAGE (SFR_1) STATIC DOWNSTREAM REACH CONNECTION DATA
 ---------------------
            DOWNSTREAM
   REACH      CONN 1  
 ---------------------
     1          2     
     2          3     
     3          4     
     4          5     
     5          6     
     6          7     
     7          8     
     8          9     
     9          10    
     10         11    
     11         12    
     12         13    
     13         14    
     14         15    
     15         16    
     16         17    
     17         18    
     18         19    
     19         20    
     20         21    
     21         22    
     22         23    
     23         24    
     24         25    
     25         26    
     26         27    
     27         28    
     28         29    
     29         30    
     30         31    
     31         32    
     32         33    
     33         34    
     34         35    
     35         36    
     36         37    
     37         38    
     38         39    
     39         40    
     40               
 ---------------------



start timestep kper="1" kstp="1" mode="normal"


 BEGIN READING OUTPUT CONTROL FOR STRESS PERIOD 1
      ALL TIME STEPS WILL BE SAVED
      ALL TIME STEPS WILL BE SAVED
      ALL TIME STEPS WILL BE PRINTED

 END READING OUTPUT CONTROL FOR STRESS PERIOD 1


 PROCESSING STORAGE PERIOD DATA
 END PROCESSING STORAGE PERIOD DATA


 STRESS PERIOD 1 IS STEADY-STATE

 ----------------------------------
  WEL NO.    LAYER    ROW     COL  
 ----------------------------------
     1         3       1       2   
     2         3       2      11   
     3         3       9      16   
     4         3      15       9   
     5         3      18       5   
     6         3      23       5   
 ----------------------------------


 ----------------------------------
  GHB NO.    LAYER    ROW     COL  
 ----------------------------------
     1         1      35      16   
     2         1      35      17   
     3         1      35      18   
     4         1      35      19   
     5         1      35      20   
     6         1      36       1   
     7         1      36       2   
     8         1      36       3   
     9         1      36       4   
     10        1      36       5   
     11        2      31       2   
     12        2      31       3   
     13        2      31       4   
     14        2      31       5   
     15        2      31       6   
     16        2      31       7   
     17        2      31       8   
     18        2      31       9   
     19        2      31      10   
     20        2      31      11   
     21        3      26       8   
     22        3      26       9   
     23        3      26      10   
     24        3      26      11   
     25        3      26      12   
     26        3      26      13   
     27        3      26      14   
     28        3      26      15   
     29        3      26      16   
     30        3      26      17   
 ----------------------------------



 OPENED freyberg6.sfr_perioddata_1.txt
 FILE TYPE:OPEN/CLOSE   UNIT 1059   STATUS:OLD                 
 FORMAT:FORMATTED              ACCESS:SEQUENTIAL          
 ACTION:READ                


 SFR PACKAGE (SFR_1) DATA FOR PERIOD      1
 ---------------------------------------------------------------
   NUMBER   KEYWORD                  VALUE 1         VALUE 2    
 ---------------------------------------------------------------
     1      INFLOW               100.00000000000                
 ---------------------------------------------------------------



 SFR PACKAGE (SFR_1) CONNECTED REACH UPSTREAM FRACTION DATA
 ----------------------------------
            DOWNSTREAM             
   REACH     REACH 1    FRACTION 1 
 ----------------------------------
     1          2       1.0000     
     2          3       1.0000     
     3          4       1.0000     
     4          5       1.0000     
     5          6       1.0000     
     6          7       1.0000     
     7          8       1.0000     
     8          9       1.0000     
     9          10      1.0000     
     10         11      1.0000     
     11         12      1.0000     
     12         13      1.0000     
     13         14      1.0000     
     14         15      1.0000     
     15         16      1.0000     
     16         17      1.0000     
     17         18      1.0000     
     18         19      1.0000     
     19         20      1.0000     
     20         21      1.0000     
     21         22      1.0000     
     22         23      1.0000     
     23         24      1.0000     
     24         25      1.0000     
     25         26      1.0000     
     26         27      1.0000     
     27         28      1.0000     
     28         29      1.0000     
     29         30      1.0000     
     30         31      1.0000     
     31         32      1.0000     
     32         33      1.0000     
     33         34      1.0000     
     34         35      1.0000     
     35         36      1.0000     
     36         37      1.0000     
     37         38      1.0000     
     38         39      1.0000     
     39         40      1.0000     
     40                            
 ----------------------------------


 UBDSV1 SAVING     FLOW-JA-FACE ON UNIT   1054 AT TIME STEP      1, STRESS PERIOD      1
 UBDSV06 SAVING              WEL IN MODEL FREYBERG6        PACKAGE FREYBERG6       CONNECTED TO MODEL FREYBERG6        PACKAGE WEL-1            ON UNIT   1054 AT TIME STEP      1, STRESS PERIOD      1
 UBDSV06 SAVING              GHB IN MODEL FREYBERG6        PACKAGE FREYBERG6       CONNECTED TO MODEL FREYBERG6        PACKAGE GHB-1            ON UNIT   1054 AT TIME STEP      1, STRESS PERIOD      1
 UBDSV06 SAVING             RCHA IN MODEL FREYBERG6        PACKAGE FREYBERG6       CONNECTED TO MODEL FREYBERG6        PACKAGE RCH-1            ON UNIT   1054 AT TIME STEP      1, STRESS PERIOD      1
 UBDSV06 SAVING              SFR IN MODEL FREYBERG6        PACKAGE FREYBERG6       CONNECTED TO MODEL FREYBERG6        PACKAGE SFR_1            ON UNIT   1054 AT TIME STEP      1, STRESS PERIOD      1

 WEL PACKAGE (WEL-1) FLOW RATES   PERIOD      1   STEP        1
 -----------------------------------------------
   NUMBER   CELLID                    RATE      
 -----------------------------------------------
     1      (3,10,17)            -150.00000     
     2      (3,12,14)            -150.00000     
     3      (3,21,15)            -150.00000     
     4      (3,27,11)            -150.00000     
     5      (3,30,7)             -150.00000     
     6      (3,35,13)            -150.00000     
 -----------------------------------------------




 GHB PACKAGE (GHB-1) FLOW RATES   PERIOD      1   STEP        1
 -----------------------------------------------
   NUMBER   CELLID                    RATE      
 -----------------------------------------------
     1      (1,40,6)             -20.284716     
     2      (1,40,7)             -20.079833     
     3      (1,40,8)             -19.739453     
     4      (1,40,9)             -19.339023     
     5      (1,40,10)            -18.940769     
     6      (1,40,11)            -18.577632     
     7      (1,40,12)            -18.281808     
     8      (1,40,13)            -18.098341     
     9      (1,40,14)            -18.115513     
     10     (1,40,15)            -18.478986     
     11     (2,40,6)             -21.044559     
     12     (2,40,7)             -20.829901     
     13     (2,40,8)             -20.473168     
     14     (2,40,9)             -20.053574     
     15     (2,40,10)            -19.636404     
     16     (2,40,11)            -19.256048     
     17     (2,40,12)            -18.946216     
     18     (2,40,13)            -18.754123     
     19     (2,40,14)            -18.772559     
     20     (2,40,15)            -19.152863     
     21     (3,40,6)             -22.912885     
     22     (3,40,7)             -22.679004     
     23     (3,40,8)             -22.289057     
     24     (3,40,9)             -21.830116     
     25     (3,40,10)            -21.377328     
     26     (3,40,11)            -20.964615     
     27     (3,40,12)            -20.629002     
     28     (3,40,13)            -20.418002     
     29     (3,40,14)            -20.438562     
     30     (3,40,15)            -20.855689     
 -----------------------------------------------




 HEAD WILL BE SAVED ON UNIT 1055 AT END OF TIME STEP    1, STRESS PERIOD    1


  SFR_1 BUDGET FOR ENTIRE MODEL AT END OF TIME STEP    1, STRESS PERIOD   1
  ------------------------------------------------------------------------------

     CUMULATIVE SFR_1      L**3       RATES FOR THIS TIME STEP      L**3/T
     ------------------                 ------------------------

           IN:                                      IN:
           ---                                      ---
                 GWF =        1740.0398                   GWF =        1740.0398
            RAINFALL =           0.0000              RAINFALL =           0.0000
         EVAPORATION =           0.0000           EVAPORATION =           0.0000
              RUNOFF =           0.0000                RUNOFF =           0.0000
          EXT-INFLOW =         100.0000            EXT-INFLOW =         100.0000
         EXT-OUTFLOW =           0.0000           EXT-OUTFLOW =           0.0000
             STORAGE =           0.0000               STORAGE =           0.0000

            TOTAL IN =        1840.0398              TOTAL IN =        1840.0398

          OUT:                                     OUT:
          ----                                     ----
                 GWF =           0.0000                   GWF =           0.0000
            RAINFALL =           0.0000              RAINFALL =           0.0000
         EVAPORATION =           0.0000           EVAPORATION =           0.0000
              RUNOFF =           0.0000                RUNOFF =           0.0000
          EXT-INFLOW =           0.0000            EXT-INFLOW =           0.0000
         EXT-OUTFLOW =        1840.0398           EXT-OUTFLOW =        1840.0398
             STORAGE =           0.0000               STORAGE =           0.0000

           TOTAL OUT =        1840.0398             TOTAL OUT =        1840.0398

            IN - OUT =           0.0000              IN - OUT =           0.0000

 PERCENT DISCREPANCY =           0.00     PERCENT DISCREPANCY =           0.00



  VOLUME BUDGET FOR ENTIRE MODEL AT END OF TIME STEP    1, STRESS PERIOD   1
  ---------------------------------------------------------------------------------------------------

     CUMULATIVE VOLUME      L**3       RATES FOR THIS TIME STEP      L**3/T          PACKAGE NAME    
     ------------------                 ------------------------                     ----------------

           IN:                                      IN:
           ---                                      ---
              STO-SS =           0.0000                STO-SS =           0.0000     STORAGE                          
              STO-SY =           0.0000                STO-SY =           0.0000     STORAGE                          
                 WEL =           0.0000                   WEL =           0.0000     WEL-1                            
                 GHB =           0.0000                   GHB =           0.0000     GHB-1                            
                RCHA =        3227.6255                  RCHA =        3227.6255     RCH-1                            
                 SFR =           0.0000                   SFR =           0.0000     SFR_1                            

            TOTAL IN =        3227.6255              TOTAL IN =        3227.6255

          OUT:                                     OUT:
          ----                                     ----
              STO-SS =           0.0000                STO-SS =           0.0000     STORAGE                          
              STO-SY =           0.0000                STO-SY =           0.0000     STORAGE                          
                 WEL =         900.0000                   WEL =         900.0000     WEL-1                            
                 GHB =         601.2497                   GHB =         601.2497     GHB-1                            
                RCHA =           0.0000                  RCHA =           0.0000     RCH-1                            
                 SFR =        1739.0380                   SFR =        1739.0380     SFR_1                            

           TOTAL OUT =        3240.2878             TOTAL OUT =        3240.2878

            IN - OUT =         -12.6623              IN - OUT =         -12.6623

 PERCENT DISCREPANCY =          -0.39     PERCENT DISCREPANCY =          -0.39




         TIME SUMMARY AT END OF TIME STEP    1 IN STRESS PERIOD    1
                    SECONDS     MINUTES      HOURS       DAYS        YEARS
                    -----------------------------------------------------------
   TIME STEP LENGTH  86400.      1440.0      24.000      1.0000     2.73785E-03
 STRESS PERIOD TIME  86400.      1440.0      24.000      1.0000     2.73785E-03
         TOTAL TIME  86400.      1440.0      24.000      1.0000     2.73785E-03


end timestep


start timestep kper="2" kstp="1" mode="normal"


 END OF FILE DETECTED IN OUTPUT CONTROL.
 CURRENT OUTPUT CONTROL SETTINGS WILL BE 
 REPEATED UNTIL THE END OF THE SIMULATION.

 OUTPUT CONTROL FOR STRESS PERIOD 2 IS REPEATED USING SETTINGS FROM A PREVIOUS STRESS PERIOD.


 PROCESSING STORAGE PERIOD DATA
 END PROCESSING STORAGE PERIOD DATA


 STRESS PERIOD 2 IS TRANSIENT

 ----------------------------------
  WEL NO.    LAYER    ROW     COL  
 ----------------------------------
     1         3       1       2   
     2         3       2      11   
     3         3       9      16   
     4         3      15       9   
     5         3      18       5   
     6         3      23       5   
 ----------------------------------



 OPENED freyberg6.sfr_perioddata_2.txt
 FILE TYPE:OPEN/CLOSE   UNIT 1062   STATUS:OLD                 
 FORMAT:FORMATTED              ACCESS:SEQUENTIAL          
 ACTION:READ                


 SFR PACKAGE (SFR_1) DATA FOR PERIOD      2
 ---------------------------------------------------------------
   NUMBER   KEYWORD                  VALUE 1         VALUE 2    
 ---------------------------------------------------------------
     1      INFLOW               154.69561767578                
 ---------------------------------------------------------------


 UBDSV1 SAVING     FLOW-JA-FACE ON UNIT   1054 AT TIME STEP      1, STRESS PERIOD      2
 UBDSV06 SAVING              WEL IN MODEL FREYBERG6        PACKAGE FREYBERG6       CONNECTED TO MODEL FREYBERG6        PACKAGE WEL-1            ON UNIT   1054 AT TIME STEP      1, STRESS PERIOD      2
 UBDSV06 SAVING              GHB IN MODEL FREYBERG6        PACKAGE FREYBERG6       CONNECTED TO MODEL FREYBERG6        PACKAGE GHB-1            ON UNIT   1054 AT TIME STEP      1, STRESS PERIOD      2
 UBDSV06 SAVING             RCHA IN MODEL FREYBERG6        PACKAGE FREYBERG6       CONNECTED TO MODEL FREYBERG6        PACKAGE RCH-1            ON UNIT   1054 AT TIME STEP      1, STRESS PERIOD      2
 UBDSV06 SAVING              SFR IN MODEL FREYBERG6        PACKAGE FREYBERG6       CONNECTED TO MODEL FREYBERG6        PACKAGE SFR_1            ON UNIT   1054 AT TIME STEP      1, STRESS PERIOD      2

 WEL PACKAGE (WEL-1) FLOW RATES   PERIOD      2   STEP        1
 -----------------------------------------------
   NUMBER   CELLID                    RATE      
 -----------------------------------------------
     1      (3,10,17)            -150.00810     
     2      (3,12,14)            -150.00810     
     3      (3,21,15)            -150.00810     
     4      (3,27,11)            -150.00810     
     5      (3,30,7)             -150.00810     
     6      (3,35,13)            -150.00810     
 -----------------------------------------------




 GHB PACKAGE (GHB-1) FLOW RATES   PERIOD      2   STEP        1
 -----------------------------------------------
   NUMBER   CELLID                    RATE      
 -----------------------------------------------
     1      (1,40,6)             -23.897750     
     2      (1,40,7)             -23.680702     
     3      (1,40,8)             -23.321424     
     4      (1,40,9)             -22.900870     
     5      (1,40,10)            -22.484571     
     6      (1,40,11)            -22.104473     
     7      (1,40,12)            -21.792186     
     8      (1,40,13)            -21.595588     
     9      (1,40,14)            -21.614113     
     10     (1,40,15)            -22.020176     
     11     (2,40,6)             -24.742523     
     12     (2,40,7)             -24.514945     
     13     (2,40,8)             -24.138130     
     14     (2,40,9)             -23.697059     
     15     (2,40,10)            -23.260718     
     16     (2,40,11)            -22.862292     
     17     (2,40,12)            -22.535136     
     18     (2,40,13)            -22.328974     
     19     (2,40,14)            -22.349162     
     20     (2,40,15)            -22.774424     
     21     (3,40,6)             -26.888968     
     22     (3,40,7)             -26.641003     
     23     (3,40,8)             -26.228882     
     24     (3,40,9)             -25.746218     
     25     (3,40,10)            -25.272693     
     26     (3,40,11)            -24.840721     
     27     (3,40,12)            -24.486481     
     28     (3,40,13)            -24.259978     
     29     (3,40,14)            -24.282410     
     30     (3,40,15)            -24.749500     
 -----------------------------------------------




 HEAD WILL BE SAVED ON UNIT 1055 AT END OF TIME STEP    1, STRESS PERIOD    2


  SFR_1 BUDGET FOR ENTIRE MODEL AT END OF TIME STEP    1, STRESS PERIOD   2
  ------------------------------------------------------------------------------

     CUMULATIVE SFR_1      L**3       RATES FOR THIS TIME STEP      L**3/T
     ------------------                 ------------------------

           IN:                                      IN:
           ---                                      ---
                 GWF =       66050.7729                   GWF =        2074.5398
            RAINFALL =           0.0000              RAINFALL =           0.0000
         EVAPORATION =           0.0000           EVAPORATION =           0.0000
              RUNOFF =           0.0000                RUNOFF =           0.0000
          EXT-INFLOW =        4895.5641            EXT-INFLOW =         154.6956
         EXT-OUTFLOW =           0.0000           EXT-OUTFLOW =           0.0000
             STORAGE =           0.0000               STORAGE =           0.0000

            TOTAL IN =       70946.3371              TOTAL IN =        2229.2354

          OUT:                                     OUT:
          ----                                     ----
                 GWF =           0.0000                   GWF =           0.0000
            RAINFALL =           0.0000              RAINFALL =           0.0000
         EVAPORATION =           0.0000           EVAPORATION =           0.0000
              RUNOFF =           0.0000                RUNOFF =           0.0000
          EXT-INFLOW =           0.0000            EXT-INFLOW =           0.0000
         EXT-OUTFLOW =       70946.3371           EXT-OUTFLOW =        2229.2354
             STORAGE =           0.0000               STORAGE =           0.0000

           TOTAL OUT =       70946.3371             TOTAL OUT =        2229.2354

            IN - OUT =      -4.3656E-11              IN - OUT =      -1.3642E-12

 PERCENT DISCREPANCY =          -0.00     PERCENT DISCREPANCY =          -0.00



  VOLUME BUDGET FOR ENTIRE MODEL AT END OF TIME STEP    1, STRESS PERIOD   2
  ---------------------------------------------------------------------------------------------------

     CUMULATIVE VOLUME      L**3       RATES FOR THIS TIME STEP      L**3/T          PACKAGE NAME    
     ------------------                 ------------------------                     ----------------

           IN:                                      IN:
           ---                                      ---
              STO-SS =           0.0000                STO-SS =           0.0000     STORAGE                          
              STO-SY =           0.0000                STO-SY =           0.0000     STORAGE                          
                 WEL =           0.0000                   WEL =           0.0000     WEL-1                            
                 GHB =           0.0000                   GHB =           0.0000     GHB-1                            
                RCHA =      165727.8926                  RCHA =        5241.9441     RCH-1                            
                 SFR =           0.0000                   SFR =           0.0000     SFR_1                            

            TOTAL IN =      165727.8926              TOTAL IN =        5241.9441

          OUT:                                     OUT:
          ----                                     ----
              STO-SS =         141.5908                STO-SS =           4.5674     STORAGE                          
              STO-SY =       47489.3931                STO-SY =        1531.9159     STORAGE                          
                 WEL =       28801.5066                   WEL =         900.0486     WEL-1                            
                 GHB =       22673.6239                   GHB =         712.0121     GHB-1                            
                RCHA =           0.0000                  RCHA =           0.0000     RCH-1                            
                 SFR =       66363.9125                   SFR =        2084.6734     SFR_1                            

           TOTAL OUT =      165470.0269             TOTAL OUT =        5233.2174

            IN - OUT =         257.8657              IN - OUT =           8.7267

 PERCENT DISCREPANCY =           0.16     PERCENT DISCREPANCY =           0.17




         TIME SUMMARY AT END OF TIME STEP    1 IN STRESS PERIOD    2
                    SECONDS     MINUTES      HOURS       DAYS        YEARS
                    -----------------------------------------------------------
   TIME STEP LENGTH 2.67840E+06  44640.      744.00      31.000     8.48734E-02
 STRESS PERIOD TIME 2.67840E+06  44640.      744.00      31.000     8.48734E-02
         TOTAL TIME 2.76480E+06  46080.      768.00      32.000     8.76112E-02


end timestep


start timestep kper="3" kstp="1" mode="normal"


 OUTPUT CONTROL FOR STRESS PERIOD 3 IS REPEATED USING SETTINGS FROM A PREVIOUS STRESS PERIOD.


 STRESS PERIOD 3 IS TRANSIENT

 ----------------------------------
  WEL NO.    LAYER    ROW     COL  
 ----------------------------------
     1         3       1       2   
     2         3       2      11   
     3         3       9      16   
     4         3      15       9   
     5         3      18       5   
     6         3      23       5   
 ----------------------------------



 OPENED freyberg6.sfr_perioddata_3.txt
 FILE TYPE:OPEN/CLOSE   UNIT 1065   STATUS:OLD                 
 FORMAT:FORMATTED              ACCESS:SEQUENTIAL          
 ACTION:READ                


 SFR PACKAGE (SFR_1) DATA FOR PERIOD      3
 ---------------------------------------------------------------
   NUMBER   KEYWORD                  VALUE 1         VALUE 2    
 ---------------------------------------------------------------
     1      INFLOW               164.98060607910                
 ---------------------------------------------------------------


 UBDSV1 SAVING     FLOW-JA-FACE ON UNIT   1054 AT TIME STEP      1, STRESS PERIOD      3
 UBDSV06 SAVING              WEL IN MODEL FREYBERG6        PACKAGE FREYBERG6       CONNECTED TO MODEL FREYBERG6        PACKAGE WEL-1            ON UNIT   1054 AT TIME STEP      1, STRESS PERIOD      3
 UBDSV06 SAVING              GHB IN MODEL FREYBERG6        PACKAGE FREYBERG6       CONNECTED TO MODEL FREYBERG6        PACKAGE GHB-1            ON UNIT   1054 AT TIME STEP      1, STRESS PERIOD      3
 UBDSV06 SAVING             RCHA IN MODEL FREYBERG6        PACKAGE FREYBERG6       CONNECTED TO MODEL FREYBERG6        PACKAGE RCH-1            ON UNIT   1054 AT TIME STEP      1, STRESS PERIOD      3
 UBDSV06 SAVING              SFR IN MODEL FREYBERG6        PACKAGE FREYBERG6       CONNECTED TO MODEL FREYBERG6        PACKAGE SFR_1            ON UNIT   1054 AT TIME STEP      1, STRESS PERIOD      3

 WEL PACKAGE (WEL-1) FLOW RATES   PERIOD      3   STEP        1
 -----------------------------------------------
   NUMBER   CELLID                    RATE      
 -----------------------------------------------
     1      (3,10,17)            -150.08902     
     2      (3,12,14)            -150.08902     
     3      (3,21,15)            -150.08902     
     4      (3,27,11)            -150.08902     
     5      (3,30,7)             -150.08902     
     6      (3,35,13)            -150.08902     
 -----------------------------------------------




 GHB PACKAGE (GHB-1) FLOW RATES   PERIOD      3   STEP        1
 -----------------------------------------------
   NUMBER   CELLID                    RATE      
 -----------------------------------------------
     1      (1,40,6)             -29.346673     
     2      (1,40,7)             -29.100843     
     3      (1,40,8)             -28.694766     
     4      (1,40,9)             -28.220618     
     5      (1,40,10)            -27.751954     
     6      (1,40,11)            -27.321224     
     7      (1,40,12)            -26.960653     
     8      (1,40,13)            -26.722241     
     9      (1,40,14)            -26.724702     
     10     (1,40,15)            -27.178691     
     11     (2,40,6)             -30.353899     
     12     (2,40,7)             -30.095980     
     13     (2,40,8)             -29.669741     
     14     (2,40,9)             -29.172109     
     15     (2,40,10)            -28.680478     
     16     (2,40,11)            -28.228709     
     17     (2,40,12)            -27.850528     
     18     (2,40,13)            -27.600407     
     19     (2,40,14)            -27.603425     
     20     (2,40,15)            -28.079568     
     21     (3,40,6)             -32.956868     
     22     (3,40,7)             -32.675838     
     23     (3,40,8)             -32.209563     
     24     (3,40,9)             -31.664814     
     25     (3,40,10)            -31.131595     
     26     (3,40,11)            -30.641875     
     27     (3,40,12)            -30.232618     
     28     (3,40,13)            -29.957388     
     29     (3,40,14)            -29.960914     
     30     (3,40,15)            -30.484193     
 -----------------------------------------------




 HEAD WILL BE SAVED ON UNIT 1055 AT END OF TIME STEP    1, STRESS PERIOD    3


  SFR_1 BUDGET FOR ENTIRE MODEL AT END OF TIME STEP    1, STRESS PERIOD   3
  ------------------------------------------------------------------------------

     CUMULATIVE SFR_1      L**3       RATES FOR THIS TIME STEP      L**3/T
     ------------------                 ------------------------

           IN:                                      IN:
           ---                                      ---
                 GWF =      142135.7830                   GWF =        2623.6210
            RAINFALL =           0.0000              RAINFALL =           0.0000
         EVAPORATION =           0.0000           EVAPORATION =           0.0000
              RUNOFF =           0.0000                RUNOFF =           0.0000
          EXT-INFLOW =        9680.0017            EXT-INFLOW =         164.9806
         EXT-OUTFLOW =           0.0000           EXT-OUTFLOW =           0.0000
             STORAGE =           0.0000               STORAGE =           0.0000

            TOTAL IN =      151815.7848              TOTAL IN =        2788.6016

          OUT:                                     OUT:
          ----                                     ----
                 GWF =           0.0000                   GWF =           0.0000
            RAINFALL =           0.0000              RAINFALL =           0.0000
         EVAPORATION =           0.0000           EVAPORATION =           0.0000
              RUNOFF =           0.0000                RUNOFF =           0.0000
          EXT-INFLOW =           0.0000            EXT-INFLOW =           0.0000
         EXT-OUTFLOW =      151815.7848           EXT-OUTFLOW =        2788.6016
             STORAGE =           0.0000               STORAGE =           0.0000

           TOTAL OUT =      151815.7848             TOTAL OUT =        2788.6016

            IN - OUT =      -2.9104E-11              IN - OUT =       4.5475E-13

 PERCENT DISCREPANCY =          -0.00     PERCENT DISCREPANCY =           0.00



  VOLUME BUDGET FOR ENTIRE MODEL AT END OF TIME STEP    1, STRESS PERIOD   3
  ---------------------------------------------------------------------------------------------------

     CUMULATIVE VOLUME      L**3       RATES FOR THIS TIME STEP      L**3/T          PACKAGE NAME    
     ------------------                 ------------------------                     ----------------

           IN:                                      IN:
           ---                                      ---
              STO-SS =           0.0000                STO-SS =           0.0000     STORAGE                          
              STO-SY =           0.0000                STO-SY =           0.0000     STORAGE                          
                 WEL =           0.0000                   WEL =           0.0000     WEL-1                            
                 GHB =           0.0000                   GHB =           0.0000     GHB-1                            
                RCHA =      372103.2533                  RCHA =        7116.3918     RCH-1                            
                 SFR =           0.0000                   SFR =           0.0000     SFR_1                            

            TOTAL IN =      372103.2533              TOTAL IN =        7116.3918

          OUT:                                     OUT:
          ----                                     ----
              STO-SS =         374.0922                STO-SS =           8.0173     STORAGE                          
              STO-SY =      125325.3173                STO-SY =        2683.9974     STORAGE                          
                 WEL =       54916.9961                   WEL =         900.5341     WEL-1                            
                 GHB =       48114.5373                   GHB =         877.2729     GHB-1                            
                RCHA =           0.0000                  RCHA =           0.0000     RCH-1                            
                 SFR =      142940.5578                   SFR =        2640.5740     SFR_1                            

           TOTAL OUT =      371671.5008             TOTAL OUT =        7110.3957

            IN - OUT =         431.7525              IN - OUT =           5.9961

 PERCENT DISCREPANCY =           0.12     PERCENT DISCREPANCY =           0.08




         TIME SUMMARY AT END OF TIME STEP    1 IN STRESS PERIOD    3
                    SECONDS     MINUTES      HOURS       DAYS        YEARS
                    -----------------------------------------------------------
   TIME STEP LENGTH 2.50560E+06  41760.      696.00      29.000     7.93977E-02
 STRESS PERIOD TIME 2.50560E+06  41760.      696.00      29.000     7.93977E-02
         TOTAL TIME 5.27040E+06  87840.      1464.0      61.000     0.16701    


end timestep


start timestep kper="4" kstp="1" mode="normal"


 OUTPUT CONTROL FOR STRESS PERIOD 4 IS REPEATED USING SETTINGS FROM A PREVIOUS STRESS PERIOD.


 STRESS PERIOD 4 IS TRANSIENT

 ----------------------------------
  WEL NO.    LAYER    ROW     COL  
 ----------------------------------
     1         3       1       2   
     2         3       2      11   
     3         3       9      16   
     4         3      15       9   
     5         3      18       5   
     6         3      23       5   
 ----------------------------------



 OPENED freyberg6.sfr_perioddata_4.txt
 FILE TYPE:OPEN/CLOSE   UNIT 1068   STATUS:OLD                 
 FORMAT:FORMATTED              ACCESS:SEQUENTIAL          
 ACTION:READ                


 SFR PACKAGE (SFR_1) DATA FOR PERIOD      4
 ---------------------------------------------------------------
   NUMBER   KEYWORD                  VALUE 1         VALUE 2    
 ---------------------------------------------------------------
     1      INFLOW               156.34576416015                
 ---------------------------------------------------------------


 UBDSV1 SAVING     FLOW-JA-FACE ON UNIT   1054 AT TIME STEP      1, STRESS PERIOD      4
 UBDSV06 SAVING              WEL IN MODEL FREYBERG6        PACKAGE FREYBERG6       CONNECTED TO MODEL FREYBERG6        PACKAGE WEL-1            ON UNIT   1054 AT TIME STEP      1, STRESS PERIOD      4
 UBDSV06 SAVING              GHB IN MODEL FREYBERG6        PACKAGE FREYBERG6       CONNECTED TO MODEL FREYBERG6        PACKAGE GHB-1            ON UNIT   1054 AT TIME STEP      1, STRESS PERIOD      4
 UBDSV06 SAVING             RCHA IN MODEL FREYBERG6        PACKAGE FREYBERG6       CONNECTED TO MODEL FREYBERG6        PACKAGE RCH-1            ON UNIT   1054 AT TIME STEP      1, STRESS PERIOD      4
 UBDSV06 SAVING              SFR IN MODEL FREYBERG6        PACKAGE FREYBERG6       CONNECTED TO MODEL FREYBERG6        PACKAGE SFR_1            ON UNIT   1054 AT TIME STEP      1, STRESS PERIOD      4

 WEL PACKAGE (WEL-1) FLOW RATES   PERIOD      4   STEP        1
 -----------------------------------------------
   NUMBER   CELLID                    RATE      
 -----------------------------------------------
     1      (3,10,17)            -150.08577     
     2      (3,12,14)            -150.08577     
     3      (3,21,15)            -150.08577     
     4      (3,27,11)            -150.08577     
     5      (3,30,7)             -150.08577     
     6      (3,35,13)            -150.08577     
 -----------------------------------------------




 GHB PACKAGE (GHB-1) FLOW RATES   PERIOD      4   STEP        1
 -----------------------------------------------
   NUMBER   CELLID                    RATE      
 -----------------------------------------------
     1      (1,40,6)             -35.447500     
     2      (1,40,7)             -35.156833     
     3      (1,40,8)             -34.676067     
     4      (1,40,9)             -34.113260     
     5      (1,40,10)            -33.553521     
     6      (1,40,11)            -33.032337     
     7      (1,40,12)            -32.585463     
     8      (1,40,13)            -32.274065     
     9      (1,40,14)            -32.240701     
     10     (1,40,15)            -32.738212     
     11     (2,40,6)             -36.666572     
     12     (2,40,7)             -36.361565     
     13     (2,40,8)             -35.856813     
     14     (2,40,9)             -35.266002     
     15     (2,40,10)            -34.678819     
     16     (2,40,11)            -34.132310     
     17     (2,40,12)            -33.663985     
     18     (2,40,13)            -33.337240     
     19     (2,40,14)            -33.302032     
     20     (2,40,15)            -33.822502     
     21     (3,40,6)             -39.812793     
     22     (3,40,7)             -39.480475     
     23     (3,40,8)             -38.928274     
     24     (3,40,9)             -38.281545     
     25     (3,40,10)            -37.644972     
     26     (3,40,11)            -37.053150     
     27     (3,40,12)            -36.546819     
     28     (3,40,13)            -36.187505     
     29     (3,40,14)            -36.147390     
     30     (3,40,15)            -36.717379     
 -----------------------------------------------




 HEAD WILL BE SAVED ON UNIT 1055 AT END OF TIME STEP    1, STRESS PERIOD    4


  SFR_1 BUDGET FOR ENTIRE MODEL AT END OF TIME STEP    1, STRESS PERIOD   4
  ------------------------------------------------------------------------------

     CUMULATIVE SFR_1      L**3       RATES FOR THIS TIME STEP      L**3/T
     ------------------                 ------------------------

           IN:                                      IN:
           ---                                      ---
                 GWF =      243617.8771                   GWF =        3273.6159
            RAINFALL =           0.0000              RAINFALL =           0.0000
         EVAPORATION =           0.0000           EVAPORATION =           0.0000
              RUNOFF =           0.0000                RUNOFF =           0.0000
          EXT-INFLOW =       14526.7204            EXT-INFLOW =         156.3458
         EXT-OUTFLOW =           0.0000           EXT-OUTFLOW =           0.0000
             STORAGE =           0.0000               STORAGE =           0.0000

            TOTAL IN =      258144.5976              TOTAL IN =        3429.9617

          OUT:                                     OUT:
          ----                                     ----
                 GWF =           0.0000                   GWF =           0.0000
            RAINFALL =           0.0000              RAINFALL =           0.0000
         EVAPORATION =           0.0000           EVAPORATION =           0.0000
              RUNOFF =           0.0000                RUNOFF =           0.0000
          EXT-INFLOW =           0.0000            EXT-INFLOW =           0.0000
         EXT-OUTFLOW =      258144.5976           EXT-OUTFLOW =        3429.9617
             STORAGE =           0.0000               STORAGE =           0.0000

           TOTAL OUT =      258144.5976             TOTAL OUT =        3429.9617

            IN - OUT =           0.0000              IN - OUT =      -4.5475E-13

 PERCENT DISCREPANCY =           0.00     PERCENT DISCREPANCY =          -0.00



  VOLUME BUDGET FOR ENTIRE MODEL AT END OF TIME STEP    1, STRESS PERIOD   4
  ---------------------------------------------------------------------------------------------------

     CUMULATIVE VOLUME      L**3       RATES FOR THIS TIME STEP      L**3/T          PACKAGE NAME    
     ------------------                 ------------------------                     ----------------

           IN:                                      IN:
           ---                                      ---
              STO-SS =           0.0000                STO-SS =           0.0000     STORAGE                          
              STO-SY =           0.0000                STO-SY =           0.0000     STORAGE                          
                 WEL =           0.0000                   WEL =           0.0000     WEL-1                            
                 GHB =           0.0000                   GHB =           0.0000     GHB-1                            
                RCHA =      629970.5344                  RCHA =        8318.2994     RCH-1                            
                 SFR =           0.0000                   SFR =           0.0000     SFR_1                            

            TOTAL IN =      629970.5344              TOTAL IN =        8318.2994

          OUT:                                     OUT:
          ----                                     ----
              STO-SS =         656.0635                STO-SS =           9.0958     STORAGE                          
              STO-SY =      219487.9094                STO-SY =        3037.5030     STORAGE                          
                 WEL =       82832.9493                   WEL =         900.5146     WEL-1                            
                 GHB =       80965.4265                   GHB =        1059.7061     GHB-1                            
                RCHA =           0.0000                  RCHA =           0.0000     RCH-1                            
                 SFR =      244812.3109                   SFR =        3286.1856     SFR_1                            

           TOTAL OUT =      628754.6596             TOTAL OUT =        8293.0051

            IN - OUT =        1215.8748              IN - OUT =          25.2943

 PERCENT DISCREPANCY =           0.19     PERCENT DISCREPANCY =           0.30




         TIME SUMMARY AT END OF TIME STEP    1 IN STRESS PERIOD    4
                    SECONDS     MINUTES      HOURS       DAYS        YEARS
                    -----------------------------------------------------------
   TIME STEP LENGTH 2.67840E+06  44640.      744.00      31.000     8.48734E-02
 STRESS PERIOD TIME 2.67840E+06  44640.      744.00      31.000     8.48734E-02
         TOTAL TIME 7.94880E+06 1.32480E+05  2208.0      92.000     0.25188    


end timestep


start timestep kper="5" kstp="1" mode="normal"


 OUTPUT CONTROL FOR STRESS PERIOD 5 IS REPEATED USING SETTINGS FROM A PREVIOUS STRESS PERIOD.


 STRESS PERIOD 5 IS TRANSIENT

 ----------------------------------
  WEL NO.    LAYER    ROW     COL  
 ----------------------------------
     1         3       1       2   
     2         3       2      11   
     3         3       9      16   
     4         3      15       9   
     5         3      18       5   
     6         3      23       5   
 ----------------------------------



 OPENED freyberg6.sfr_perioddata_5.txt
 FILE TYPE:OPEN/CLOSE   UNIT 1071   STATUS:OLD                 
 FORMAT:FORMATTED              ACCESS:SEQUENTIAL          
 ACTION:READ                


 SFR PACKAGE (SFR_1) DATA FOR PERIOD      5
 ---------------------------------------------------------------
   NUMBER   KEYWORD                  VALUE 1         VALUE 2    
 ---------------------------------------------------------------
     1      INFLOW               131.30522155761                
 ---------------------------------------------------------------


 UBDSV1 SAVING     FLOW-JA-FACE ON UNIT   1054 AT TIME STEP      1, STRESS PERIOD      5
 UBDSV06 SAVING              WEL IN MODEL FREYBERG6        PACKAGE FREYBERG6       CONNECTED TO MODEL FREYBERG6        PACKAGE WEL-1            ON UNIT   1054 AT TIME STEP      1, STRESS PERIOD      5
 UBDSV06 SAVING              GHB IN MODEL FREYBERG6        PACKAGE FREYBERG6       CONNECTED TO MODEL FREYBERG6        PACKAGE GHB-1            ON UNIT   1054 AT TIME STEP      1, STRESS PERIOD      5
 UBDSV06 SAVING             RCHA IN MODEL FREYBERG6        PACKAGE FREYBERG6       CONNECTED TO MODEL FREYBERG6        PACKAGE RCH-1            ON UNIT   1054 AT TIME STEP      1, STRESS PERIOD      5
 UBDSV06 SAVING              SFR IN MODEL FREYBERG6        PACKAGE FREYBERG6       CONNECTED TO MODEL FREYBERG6        PACKAGE SFR_1            ON UNIT   1054 AT TIME STEP      1, STRESS PERIOD      5

 WEL PACKAGE (WEL-1) FLOW RATES   PERIOD      5   STEP        1
 -----------------------------------------------
   NUMBER   CELLID                    RATE      
 -----------------------------------------------
     1      (3,10,17)            -150.12480     
     2      (3,12,14)            -150.12480     
     3      (3,21,15)            -150.12480     
     4      (3,27,11)            -150.12480     
     5      (3,30,7)             -150.12480     
     6      (3,35,13)            -150.12480     
 -----------------------------------------------




 GHB PACKAGE (GHB-1) FLOW RATES   PERIOD      5   STEP        1
 -----------------------------------------------
   NUMBER   CELLID                    RATE      
 -----------------------------------------------
     1      (1,40,6)             -39.932813     
     2      (1,40,7)             -39.599367     
     3      (1,40,8)             -39.048756     
     4      (1,40,9)             -38.404789     
     5      (1,40,10)            -37.764120     
     6      (1,40,11)            -37.165291     
     7      (1,40,12)            -36.644746     
     8      (1,40,13)            -36.265565     
     9      (1,40,14)            -36.185141     
     10     (1,40,15)            -36.692818     
     11     (2,40,6)             -41.332323     
     12     (2,40,7)             -40.982607     
     13     (2,40,8)             -40.404799     
     14     (2,40,9)             -39.729077     
     15     (2,40,10)            -39.057178     
     16     (2,40,11)            -38.429265     
     17     (2,40,12)            -37.883489     
     18     (2,40,13)            -37.485774     
     19     (2,40,14)            -37.401879     
     20     (2,40,15)            -37.934130     
     21     (3,40,6)             -44.905786     
     22     (3,40,7)             -44.524905     
     23     (3,40,8)             -43.892998     
     24     (3,40,9)             -43.153468     
     25     (3,40,10)            -42.424915     
     26     (3,40,11)            -41.744303     
     27     (3,40,12)            -41.153341     
     28     (3,40,13)            -40.715760     
     29     (3,40,14)            -40.623485     
     30     (3,40,15)            -41.208101     
 -----------------------------------------------




 HEAD WILL BE SAVED ON UNIT 1055 AT END OF TIME STEP    1, STRESS PERIOD    5


  SFR_1 BUDGET FOR ENTIRE MODEL AT END OF TIME STEP    1, STRESS PERIOD   5
  ------------------------------------------------------------------------------

     CUMULATIVE SFR_1      L**3       RATES FOR THIS TIME STEP      L**3/T
     ------------------                 ------------------------

           IN:                                      IN:
           ---                                      ---
                 GWF =      357036.6541                   GWF =        3780.6259
            RAINFALL =           0.0000              RAINFALL =           0.0000
         EVAPORATION =           0.0000           EVAPORATION =           0.0000
              RUNOFF =           0.0000                RUNOFF =           0.0000
          EXT-INFLOW =       18465.8771            EXT-INFLOW =         131.3052
         EXT-OUTFLOW =           0.0000           EXT-OUTFLOW =           0.0000
             STORAGE =           0.0000               STORAGE =           0.0000

            TOTAL IN =      375502.5311              TOTAL IN =        3911.9311

          OUT:                                     OUT:
          ----                                     ----
                 GWF =           0.0000                   GWF =           0.0000
            RAINFALL =           0.0000              RAINFALL =           0.0000
         EVAPORATION =           0.0000           EVAPORATION =           0.0000
              RUNOFF =           0.0000                RUNOFF =           0.0000
          EXT-INFLOW =           0.0000            EXT-INFLOW =           0.0000
         EXT-OUTFLOW =      375502.5311           EXT-OUTFLOW =        3911.9311
             STORAGE =           0.0000               STORAGE =           0.0000

           TOTAL OUT =      375502.5311             TOTAL OUT =        3911.9311

            IN - OUT =           0.0000              IN - OUT =           0.0000

 PERCENT DISCREPANCY =           0.00     PERCENT DISCREPANCY =           0.00



  VOLUME BUDGET FOR ENTIRE MODEL AT END OF TIME STEP    1, STRESS PERIOD   5
  ---------------------------------------------------------------------------------------------------

     CUMULATIVE VOLUME      L**3       RATES FOR THIS TIME STEP      L**3/T          PACKAGE NAME    
     ------------------                 ------------------------                     ----------------

           IN:                                      IN:
           ---                                      ---
              STO-SS =           0.0000                STO-SS =           0.0000     STORAGE                          
              STO-SY =           0.0000                STO-SY =           0.0000     STORAGE                          
                 WEL =           0.0000                   WEL =           0.0000     WEL-1                            
                 GHB =           0.0000                   GHB =           0.0000     GHB-1                            
                RCHA =      885310.9222                  RCHA =        8511.3463     RCH-1                            
                 SFR =           0.0000                   SFR =           0.0000     SFR_1                            

            TOTAL IN =      885310.9222              TOTAL IN =        8511.3463

          OUT:                                     OUT:
          ----                                     ----
              STO-SS =         890.9902                STO-SS =           7.8309     STORAGE                          
              STO-SY =      297763.9308                STO-SY =        2609.2007     STORAGE                          
                 WEL =      109855.4133                   WEL =         900.7488     WEL-1                            
                 GHB =      116746.1561                   GHB =        1192.6910     GHB-1                            
                RCHA =           0.0000                  RCHA =           0.0000     RCH-1                            
                 SFR =      358718.3885                   SFR =        3796.8693     SFR_1                            

           TOTAL OUT =      883974.8789             TOTAL OUT =        8507.3406

            IN - OUT =        1336.0433              IN - OUT =           4.0056

 PERCENT DISCREPANCY =           0.15     PERCENT DISCREPANCY =           0.05




         TIME SUMMARY AT END OF TIME STEP    1 IN STRESS PERIOD    5
                    SECONDS     MINUTES      HOURS       DAYS        YEARS
                    -----------------------------------------------------------
   TIME STEP LENGTH 2.59200E+06  43200.      720.00      30.000     8.21355E-02
 STRESS PERIOD TIME 2.59200E+06  43200.      720.00      30.000     8.21355E-02
         TOTAL TIME 1.05408E+07 1.75680E+05  2928.0      122.00     0.33402    


end timestep


start timestep kper="6" kstp="1" mode="normal"


 OUTPUT CONTROL FOR STRESS PERIOD 6 IS REPEATED USING SETTINGS FROM A PREVIOUS STRESS PERIOD.


 STRESS PERIOD 6 IS TRANSIENT

 ----------------------------------
  WEL NO.    LAYER    ROW     COL  
 ----------------------------------
     1         3       1       2   
     2         3       2      11   
     3         3       9      16   
     4         3      15       9   
     5         3      18       5   
     6         3      23       5   
 ----------------------------------



 OPENED freyberg6.sfr_perioddata_6.txt
 FILE TYPE:OPEN/CLOSE   UNIT 1074   STATUS:OLD                 
 FORMAT:FORMATTED              ACCESS:SEQUENTIAL          
 ACTION:READ                


 SFR PACKAGE (SFR_1) DATA FOR PERIOD      6
 ---------------------------------------------------------------
   NUMBER   KEYWORD                  VALUE 1         VALUE 2    
 ---------------------------------------------------------------
     1      INFLOW               97.149810791015                
 ---------------------------------------------------------------


 UBDSV1 SAVING     FLOW-JA-FACE ON UNIT   1054 AT TIME STEP      1, STRESS PERIOD      6
 UBDSV06 SAVING              WEL IN MODEL FREYBERG6        PACKAGE FREYBERG6       CONNECTED TO MODEL FREYBERG6        PACKAGE WEL-1            ON UNIT   1054 AT TIME STEP      1, STRESS PERIOD      6
 UBDSV06 SAVING              GHB IN MODEL FREYBERG6        PACKAGE FREYBERG6       CONNECTED TO MODEL FREYBERG6        PACKAGE GHB-1            ON UNIT   1054 AT TIME STEP      1, STRESS PERIOD      6
 UBDSV06 SAVING             RCHA IN MODEL FREYBERG6        PACKAGE FREYBERG6       CONNECTED TO MODEL FREYBERG6        PACKAGE RCH-1            ON UNIT   1054 AT TIME STEP      1, STRESS PERIOD      6
 UBDSV06 SAVING              SFR IN MODEL FREYBERG6        PACKAGE FREYBERG6       CONNECTED TO MODEL FREYBERG6        PACKAGE SFR_1            ON UNIT   1054 AT TIME STEP      1, STRESS PERIOD      6

 WEL PACKAGE (WEL-1) FLOW RATES   PERIOD      6   STEP        1
 -----------------------------------------------
   NUMBER   CELLID                    RATE      
 -----------------------------------------------
     1      (3,10,17)            -150.13403     
     2      (3,12,14)            -150.13403     
     3      (3,21,15)            -150.13403     
     4      (3,27,11)            -150.13403     
     5      (3,30,7)             -150.13403     
     6      (3,35,13)            -150.13403     
 -----------------------------------------------




 GHB PACKAGE (GHB-1) FLOW RATES   PERIOD      6   STEP        1
 -----------------------------------------------
   NUMBER   CELLID                    RATE      
 -----------------------------------------------
     1      (1,40,6)             -41.769988     
     2      (1,40,7)             -41.402523     
     3      (1,40,8)             -40.794983     
     4      (1,40,9)             -40.082696     
     5      (1,40,10)            -39.371082     
     6      (1,40,11)            -38.702885     
     7      (1,40,12)            -38.117054     
     8      (1,40,13)            -37.679835     
     9      (1,40,14)            -37.556671     
     10     (1,40,15)            -38.052828     
     11     (2,40,6)             -43.280253     
     12     (2,40,7)             -42.895087     
     13     (2,40,8)             -42.257930     
     14     (2,40,9)             -41.510905     
     15     (2,40,10)            -40.764960     
     16     (2,40,11)            -40.064563     
     17     (2,40,12)            -39.450620     
     18     (2,40,13)            -38.992265     
     19     (2,40,14)            -38.863806     
     20     (2,40,15)            -39.383623     
     21     (3,40,6)             -47.068490     
     22     (3,40,7)             -46.649101     
     23     (3,40,8)             -45.952488     
     24     (3,40,9)             -45.135166     
     25     (3,40,10)            -44.326078     
[...]

          OUT:                                     OUT:
          ----                                     ----
              STO-SS =        2135.3669                STO-SS =           0.0000     STORAGE                          
              STO-SY =      713516.2213                STO-SY =           0.0000     STORAGE                          
                 WEL =      604220.9659                   WEL =         900.1534     WEL-1                            
                 GHB =      595452.4525                   GHB =         516.4640     GHB-1                            
                RCHA =           0.0000                  RCHA =           0.0000     RCH-1                            
                 SFR =     1887521.3300                   SFR =        1594.7521     SFR_1                            

           TOTAL OUT =     3802846.3367             TOTAL OUT =        3011.3696

            IN - OUT =         688.0174              IN - OUT =          -6.4833

 PERCENT DISCREPANCY =           0.02     PERCENT DISCREPANCY =          -0.22




         TIME SUMMARY AT END OF TIME STEP    1 IN STRESS PERIOD   23
                    SECONDS     MINUTES      HOURS       DAYS        YEARS
                    -----------------------------------------------------------
   TIME STEP LENGTH 2.67840E+06  44640.      744.00      31.000     8.48734E-02
 STRESS PERIOD TIME 2.67840E+06  44640.      744.00      31.000     8.48734E-02
         TOTAL TIME 5.79744E+07 9.66240E+05  16104.      671.00      1.8371    


end timestep


start timestep kper="24" kstp="1" mode="normal"


 OUTPUT CONTROL FOR STRESS PERIOD 24 IS REPEATED USING SETTINGS FROM A PREVIOUS STRESS PERIOD.


 STRESS PERIOD 24 IS TRANSIENT

 ----------------------------------
  WEL NO.    LAYER    ROW     COL  
 ----------------------------------
     1         3       1       2   
     2         3       2      11   
     3         3       9      16   
     4         3      15       9   
     5         3      18       5   
     6         3      23       5   
 ----------------------------------



 OPENED freyberg6.sfr_perioddata_24.txt
 FILE TYPE:OPEN/CLOSE   UNIT 1128   STATUS:OLD                 
 FORMAT:FORMATTED              ACCESS:SEQUENTIAL          
 ACTION:READ                


 SFR PACKAGE (SFR_1) DATA FOR PERIOD     24
 ---------------------------------------------------------------
   NUMBER   KEYWORD                  VALUE 1         VALUE 2    
 ---------------------------------------------------------------
     1      INFLOW               128.48538208007                
 ---------------------------------------------------------------


 UBDSV1 SAVING     FLOW-JA-FACE ON UNIT   1054 AT TIME STEP      1, STRESS PERIOD     24
 UBDSV06 SAVING              WEL IN MODEL FREYBERG6        PACKAGE FREYBERG6       CONNECTED TO MODEL FREYBERG6        PACKAGE WEL-1            ON UNIT   1054 AT TIME STEP      1, STRESS PERIOD     24
 UBDSV06 SAVING              GHB IN MODEL FREYBERG6        PACKAGE FREYBERG6       CONNECTED TO MODEL FREYBERG6        PACKAGE GHB-1            ON UNIT   1054 AT TIME STEP      1, STRESS PERIOD     24
 UBDSV06 SAVING             RCHA IN MODEL FREYBERG6        PACKAGE FREYBERG6       CONNECTED TO MODEL FREYBERG6        PACKAGE RCH-1            ON UNIT   1054 AT TIME STEP      1, STRESS PERIOD     24
 UBDSV06 SAVING              SFR IN MODEL FREYBERG6        PACKAGE FREYBERG6       CONNECTED TO MODEL FREYBERG6        PACKAGE SFR_1            ON UNIT   1054 AT TIME STEP      1, STRESS PERIOD     24

 WEL PACKAGE (WEL-1) FLOW RATES   PERIOD     24   STEP        1
 -----------------------------------------------
   NUMBER   CELLID                    RATE      
 -----------------------------------------------
     1      (3,10,17)            -150.11490     
     2      (3,12,14)            -150.11490     
     3      (3,21,15)            -150.11490     
     4      (3,27,11)            -150.11490     
     5      (3,30,7)             -150.11490     
     6      (3,35,13)            -150.11490     
 -----------------------------------------------




 GHB PACKAGE (GHB-1) FLOW RATES   PERIOD     24   STEP        1
 -----------------------------------------------
   NUMBER   CELLID                    RATE      
 -----------------------------------------------
     1      (1,40,6)             -16.055289     
     2      (1,40,7)             -15.846192     
     3      (1,40,8)             -15.496380     
     4      (1,40,9)             -15.080354     
     5      (1,40,10)            -14.660402     
     6      (1,40,11)            -14.273711     
     7      (1,40,12)            -13.955824     
     8      (1,40,13)            -13.750501     
     9      (1,40,14)            -13.733972     
     10     (1,40,15)            -14.022603     
     11     (2,40,6)             -16.717903     
     12     (2,40,7)             -16.499248     
     13     (2,40,8)             -16.133344     
     14     (2,40,9)             -15.698234     
     15     (2,40,10)            -15.259176     
     16     (2,40,11)            -14.855078     
     17     (2,40,12)            -14.522889     
     18     (2,40,13)            -14.308670     
     19     (2,40,14)            -14.292106     
     20     (2,40,15)            -14.593764     
     21     (3,40,6)             -18.262895     
     22     (3,40,7)             -18.024682     
     23     (3,40,8)             -17.624951     
     24     (3,40,9)             -17.149331     
     25     (3,40,10)            -16.672319     
     26     (3,40,11)            -16.233410     
     27     (3,40,12)            -15.873167     
     28     (3,40,13)            -15.638648     
     29     (3,40,14)            -15.621289     
     30     (3,40,15)            -15.951509     
 -----------------------------------------------




 HEAD WILL BE SAVED ON UNIT 1055 AT END OF TIME STEP    1, STRESS PERIOD   24


  SFR_1 BUDGET FOR ENTIRE MODEL AT END OF TIME STEP    1, STRESS PERIOD  24
  ------------------------------------------------------------------------------

     CUMULATIVE SFR_1      L**3       RATES FOR THIS TIME STEP      L**3/T
     ------------------                 ------------------------

           IN:                                      IN:
           ---                                      ---
                 GWF =     1929090.1825                   GWF =        1372.5156
            RAINFALL =           0.0000              RAINFALL =           0.0000
         EVAPORATION =           0.0000           EVAPORATION =           0.0000
              RUNOFF =           0.0000                RUNOFF =           0.0000
          EXT-INFLOW =       69870.5673            EXT-INFLOW =         128.4854
         EXT-OUTFLOW =           0.0000           EXT-OUTFLOW =           0.0000
             STORAGE =           0.0000               STORAGE =           0.0000

            TOTAL IN =     1998960.7499              TOTAL IN =        1501.0009

          OUT:                                     OUT:
          ----                                     ----
                 GWF =           0.0000                   GWF =           0.0000
            RAINFALL =           0.0000              RAINFALL =           0.0000
         EVAPORATION =           0.0000           EVAPORATION =           0.0000
              RUNOFF =           0.0000                RUNOFF =           0.0000
          EXT-INFLOW =           0.0000            EXT-INFLOW =           0.0000
         EXT-OUTFLOW =     1998960.7499           EXT-OUTFLOW =        1501.0009
             STORAGE =           0.0000               STORAGE =           0.0000

           TOTAL OUT =     1998960.7499             TOTAL OUT =        1501.0009

            IN - OUT =           0.0000              IN - OUT =       4.5475E-13

 PERCENT DISCREPANCY =           0.00     PERCENT DISCREPANCY =           0.00



  VOLUME BUDGET FOR ENTIRE MODEL AT END OF TIME STEP    1, STRESS PERIOD  24
  ---------------------------------------------------------------------------------------------------

     CUMULATIVE VOLUME      L**3       RATES FOR THIS TIME STEP      L**3/T          PACKAGE NAME    
     ------------------                 ------------------------                     ----------------

           IN:                                      IN:
           ---                                      ---
              STO-SS =        2241.3865                STO-SS =           4.0744     STORAGE                          
              STO-SY =      747021.0773                STO-SY =        1405.1116     STORAGE                          
                 WEL =           0.0000                   WEL =           0.0000     WEL-1                            
                 GHB =           0.0000                   GHB =           0.0000     GHB-1                            
                RCHA =     3136099.7714                  RCHA =        1318.4100     RCH-1                            
                 SFR =           0.0000                   SFR =           0.0000     SFR_1                            

            TOTAL IN =     3885362.2352              TOTAL IN =        2727.5960

          OUT:                                     OUT:
          ----                                     ----
              STO-SS =        2135.3669                STO-SS =           0.0000     STORAGE                          
              STO-SY =      713516.2213                STO-SY =           0.0000     STORAGE                          
                 WEL =      631241.6479                   WEL =         900.6894     WEL-1                            
                 GHB =      609456.6877                   GHB =         466.8078     GHB-1                            
                RCHA =           0.0000                  RCHA =           0.0000     RCH-1                            
                 SFR =     1928415.6060                   SFR =        1363.1425     SFR_1                            

           TOTAL OUT =     3884765.5299             TOTAL OUT =        2730.6398

            IN - OUT =         596.7053              IN - OUT =          -3.0437

 PERCENT DISCREPANCY =           0.02     PERCENT DISCREPANCY =          -0.11




         TIME SUMMARY AT END OF TIME STEP    1 IN STRESS PERIOD   24
                    SECONDS     MINUTES      HOURS       DAYS        YEARS
                    -----------------------------------------------------------
   TIME STEP LENGTH 2.59200E+06  43200.      720.00      30.000     8.21355E-02
 STRESS PERIOD TIME 2.59200E+06  43200.      720.00      30.000     8.21355E-02
         TOTAL TIME 6.05664E+07 1.00944E+06  16824.      701.00      1.9192    


end timestep


start timestep kper="25" kstp="1" mode="normal"


 OUTPUT CONTROL FOR STRESS PERIOD 25 IS REPEATED USING SETTINGS FROM A PREVIOUS STRESS PERIOD.


 STRESS PERIOD 25 IS TRANSIENT

 ----------------------------------
  WEL NO.    LAYER    ROW     COL  
 ----------------------------------
     1         3       1       2   
     2         3       2      11   
     3         3       9      16   
     4         3      15       9   
     5         3      18       5   
     6         3      23       5   
 ----------------------------------



 OPENED freyberg6.sfr_perioddata_25.txt
 FILE TYPE:OPEN/CLOSE   UNIT 1130   STATUS:OLD                 
 FORMAT:FORMATTED              ACCESS:SEQUENTIAL          
 ACTION:READ                


 SFR PACKAGE (SFR_1) DATA FOR PERIOD     25
 ---------------------------------------------------------------
   NUMBER   KEYWORD                  VALUE 1         VALUE 2    
 ---------------------------------------------------------------
     1      INFLOW               154.69561767578                
 ---------------------------------------------------------------


 UBDSV1 SAVING     FLOW-JA-FACE ON UNIT   1054 AT TIME STEP      1, STRESS PERIOD     25
 UBDSV06 SAVING              WEL IN MODEL FREYBERG6        PACKAGE FREYBERG6       CONNECTED TO MODEL FREYBERG6        PACKAGE WEL-1            ON UNIT   1054 AT TIME STEP      1, STRESS PERIOD     25
 UBDSV06 SAVING              GHB IN MODEL FREYBERG6        PACKAGE FREYBERG6       CONNECTED TO MODEL FREYBERG6        PACKAGE GHB-1            ON UNIT   1054 AT TIME STEP      1, STRESS PERIOD     25
 UBDSV06 SAVING             RCHA IN MODEL FREYBERG6        PACKAGE FREYBERG6       CONNECTED TO MODEL FREYBERG6        PACKAGE RCH-1            ON UNIT   1054 AT TIME STEP      1, STRESS PERIOD     25
 UBDSV06 SAVING              SFR IN MODEL FREYBERG6        PACKAGE FREYBERG6       CONNECTED TO MODEL FREYBERG6        PACKAGE SFR_1            ON UNIT   1054 AT TIME STEP      1, STRESS PERIOD     25

 WEL PACKAGE (WEL-1) FLOW RATES   PERIOD     25   STEP        1
 -----------------------------------------------
   NUMBER   CELLID                    RATE      
 -----------------------------------------------
     1      (3,10,17)            -150.14500     
     2      (3,12,14)            -150.14500     
     3      (3,21,15)            -150.14500     
     4      (3,27,11)            -150.14500     
     5      (3,30,7)             -150.14500     
     6      (3,35,13)            -150.14500     
 -----------------------------------------------




 GHB PACKAGE (GHB-1) FLOW RATES   PERIOD     25   STEP        1
 -----------------------------------------------
   NUMBER   CELLID                    RATE      
 -----------------------------------------------
     1      (1,40,6)             -19.277309     
     2      (1,40,7)             -19.076458     
     3      (1,40,8)             -18.742398     
     4      (1,40,9)             -18.348653     
     5      (1,40,10)            -17.956028     
     6      (1,40,11)            -17.597692     
     7      (1,40,12)            -17.306050     
     8      (1,40,13)            -17.125481     
     9      (1,40,14)            -17.140550     
     10     (1,40,15)            -17.488344     
     11     (2,40,6)             -19.978694     
     12     (2,40,7)             -19.768323     
     13     (2,40,8)             -19.418352     
     14     (2,40,9)             -19.005931     
     15     (2,40,10)            -18.594906     
     16     (2,40,11)            -18.219865     
     17     (2,40,12)            -17.914739     
     18     (2,40,13)            -17.726030     
     19     (2,40,14)            -17.742625     
     20     (2,40,15)            -18.107192     
     21     (3,40,6)             -21.731767     
     22     (3,40,7)             -21.502515     
     23     (3,40,8)             -21.119896     
     24     (3,40,9)             -20.668770     
     25     (3,40,10)            -20.222475     
     26     (3,40,11)            -19.815472     
     27     (3,40,12)            -19.484990     
     28     (3,40,13)            -19.278051     
     29     (3,40,14)            -19.296936     
     30     (3,40,15)            -19.697352     
 -----------------------------------------------




 HEAD WILL BE SAVED ON UNIT 1055 AT END OF TIME STEP    1, STRESS PERIOD   25


  SFR_1 BUDGET FOR ENTIRE MODEL AT END OF TIME STEP    1, STRESS PERIOD  25
  ------------------------------------------------------------------------------

     CUMULATIVE SFR_1      L**3       RATES FOR THIS TIME STEP      L**3/T
     ------------------                 ------------------------

           IN:                                      IN:
           ---                                      ---
                 GWF =     1979575.7501                   GWF =        1628.5667
            RAINFALL =           0.0000              RAINFALL =           0.0000
         EVAPORATION =           0.0000           EVAPORATION =           0.0000
              RUNOFF =           0.0000                RUNOFF =           0.0000
          EXT-INFLOW =       74666.1315            EXT-INFLOW =         154.6956
         EXT-OUTFLOW =           0.0000           EXT-OUTFLOW =           0.0000
             STORAGE =           0.0000               STORAGE =           0.0000

            TOTAL IN =     2054241.8816              TOTAL IN =        1783.2623

          OUT:                                     OUT:
          ----                                     ----
                 GWF =           0.0000                   GWF =           0.0000
            RAINFALL =           0.0000              RAINFALL =           0.0000
         EVAPORATION =           0.0000           EVAPORATION =           0.0000
              RUNOFF =           0.0000                RUNOFF =           0.0000
          EXT-INFLOW =           0.0000            EXT-INFLOW =           0.0000
         EXT-OUTFLOW =     2054241.8816           EXT-OUTFLOW =        1783.2623
             STORAGE =           0.0000               STORAGE =           0.0000

           TOTAL OUT =     2054241.8816             TOTAL OUT =        1783.2623

            IN - OUT =           0.0000              IN - OUT =           0.0000

 PERCENT DISCREPANCY =           0.00     PERCENT DISCREPANCY =           0.00



  VOLUME BUDGET FOR ENTIRE MODEL AT END OF TIME STEP    1, STRESS PERIOD  25
  ---------------------------------------------------------------------------------------------------

     CUMULATIVE VOLUME      L**3       RATES FOR THIS TIME STEP      L**3/T          PACKAGE NAME    
     ------------------                 ------------------------                     ----------------

           IN:                                      IN:
           ---                                      ---
              STO-SS =        2241.3865                STO-SS =           0.0000     STORAGE                          
              STO-SY =      747021.0773                STO-SY =           0.0000     STORAGE                          
                 WEL =           0.0000                   WEL =           0.0000     WEL-1                            
                 GHB =           0.0000                   GHB =           0.0000     GHB-1                            
                RCHA =     3260846.2645                  RCHA =        4024.0804     RCH-1                            
                 SFR =           0.0000                   SFR =           0.0000     SFR_1                            

            TOTAL IN =     4010108.7282              TOTAL IN =        4024.0804

          OUT:                                     OUT:
          ----                                     ----
              STO-SS =        2222.1072                STO-SS =           2.7981     STORAGE                          
              STO-SY =      741716.7595                STO-SY =         909.6948     STORAGE                          
                 WEL =      659168.6179                   WEL =         900.8700     WEL-1                            
                 GHB =      627106.6569                   GHB =         569.3538     GHB-1                            
                RCHA =           0.0000                  RCHA =           0.0000     RCH-1                            
                 SFR =     1979202.3584                   SFR =        1638.2823     SFR_1                            

           TOTAL OUT =     4009416.4999             TOTAL OUT =        4020.9990

            IN - OUT =         692.2283              IN - OUT =           3.0814

 PERCENT DISCREPANCY =           0.02     PERCENT DISCREPANCY =           0.08




         TIME SUMMARY AT END OF TIME STEP    1 IN STRESS PERIOD   25
                    SECONDS     MINUTES      HOURS       DAYS        YEARS
                    -----------------------------------------------------------
   TIME STEP LENGTH 2.67840E+06  44640.      744.00      31.000     8.48734E-02
 STRESS PERIOD TIME 2.67840E+06  44640.      744.00      31.000     8.48734E-02
         TOTAL TIME 6.32448E+07 1.05408E+06  17568.      732.00      2.0041    


end timestep

