                                   MODFLOW 6
                U.S. GEOLOGICAL SURVEY MODULAR HYDROLOGIC MODEL
                            VERSION 6.6.1 02/10/2025

   MODFLOW 6 compiled Feb 14 2025 13:40:10 with Intel(R) Fortran Intel(R) 64
   Compiler Classic for applications running on Intel(R) 64, Version 2021.7.0
                             Build 20220726_000000

This software has been approved for release by the U.S. Geological 
Survey (USGS). Although the software has been subjected to rigorous 
review, the USGS reserves the right to update the software as needed 
pursuant to further analysis and review. No warranty, expressed or 
implied, is made by the USGS or the U.S. Government as to the 
functionality of the software and related material nor shall the 
fact of release constitute any such warranty. Furthermore, the 
software is released on condition that neither the USGS nor the U.S. 
Government shall be held liable for any damages resulting from its 
authorized or unauthorized use. Also refer to the USGS Water 
Resources Software User Rights Notice for complete use, copyright, 
and distribution information.


As a work of the United States Government, this USGS product is 
in the public domain within the United States. You can copy, 
modify, distribute, and perform the work, even for commercial 
purposes, all without asking permission. Additionally, USGS 
waives copyright and related rights in the work worldwide 
through CC0 1.0 Universal Public Domain Dedication 
(https://creativecommons.org/publicdomain/zero/1.0/).

The following GNU Lesser General Public License (LGPL) libraries
are used in this USGS product:

    SPARSKIT version 2.0
      ilut, luson, and qsplit 
      (https://www-users.cse.umn.edu/~saad/software/SPARSKIT/)

    RCM - Reverse Cuthill McKee Ordering
      (https://people.math.sc.edu/Burkardt/f_src/rcm/rcm.html)

    BLAS - Basic Linear Algebra Subprograms Level 1
      (https://people.math.sc.edu/Burkardt/f_src/blas1_d/blas1_d.html)

    SPARSEKIT - Sparse Matrix Utility Package
      amux, dperm, dvperm, rperm, and cperm
      (https://people.sc.fsu.edu/~jburkardt/f77_src/sparsekit/sparsekit.html)

The following BSD-3 License libraries are used in this USGS product:

    Modern Fortran DAG Library
      Copyright (c) 2018, Jacob Williams
      All rights reserved.
      (https://github.com/jacobwilliams/daglib)

MODFLOW 6 compiler options: /O2 /heap-arrays:0 /fpe:0 /traceback /nologo /fpp
/c /module:win64\mod_mf6\ /object:win64\obj_mf6\

System command used to initiate simulation:
C:\Users\gross.DESKTOP-AIRQM2M\anaconda3\Scripts\mf6.exe

MODFLOW was compiled using uniform precision.

Real Variables
  KIND: 8
  TINY (smallest non-zero value):    2.225074-308
  HUGE (largest value):    1.797693+308
  PRECISION: 15
  SIZE IN BITS: 64

Integer Variables
  KIND: 4
  HUGE (largest value): 2147483647
  SIZE IN BITS: 32

Long Integer Variables
  KIND: 8
  HUGE (largest value): 9223372036854775807
  SIZE IN BITS: 64

Logical Variables
  KIND: 4
  SIZE IN BITS: 32
 

 OPENED mfsim.nam
 FILE TYPE:NAM6               UNIT 1001   STATUS:OLD                 
 FORMAT:FORMATTED              ACCESS:SEQUENTIAL          
 ACTION:READ                

 # File generated by Flopy version 3.9.1 on 04/10/2025 at 15:05:26.

 OPENED 09_nwt_p03.tdis
 FILE TYPE:TDIS6              UNIT 1002   STATUS:OLD                 
 FORMAT:FORMATTED              ACCESS:SEQUENTIAL          
 ACTION:READ                

 # File generated by Flopy version 3.9.1 on 04/10/2025 at 15:05:26.

 OPENED 09_nwt_p03.nam
 FILE TYPE:GWF6               UNIT 1003   STATUS:OLD                 
 FORMAT:FORMATTED              ACCESS:SEQUENTIAL          
 ACTION:READ                

 # File generated by Flopy version 3.9.1 on 04/10/2025 at 15:05:26.

 OPENED 09_nwt_p03.dis
 FILE TYPE:DIS6               UNIT 1004   STATUS:OLD                 
 FORMAT:FORMATTED              ACCESS:SEQUENTIAL          
 ACTION:READ                

 # File generated by Flopy version 3.9.1 on 04/10/2025 at 15:05:26.

 OPENED 09_nwt_p03.npf
 FILE TYPE:NPF6               UNIT 1005   STATUS:OLD                 
 FORMAT:FORMATTED              ACCESS:SEQUENTIAL          
 ACTION:READ                

 # File generated by Flopy version 3.9.1 on 04/10/2025 at 15:05:26.

 OPENED 09_nwt_p03.ic
 FILE TYPE:IC6                UNIT 1006   STATUS:OLD                 
 FORMAT:FORMATTED              ACCESS:SEQUENTIAL          
 ACTION:READ                

 # File generated by Flopy version 3.9.1 on 04/10/2025 at 15:05:26.

 OPENED 09_nwt_p03.oc
 FILE TYPE:OC6       UNIT 1007   STATUS:OLD                 
 FORMAT:FORMATTED              ACCESS:SEQUENTIAL          
 ACTION:READ                


 OPENED 09_nwt_p03.rcha
 FILE TYPE:RCH6               UNIT 1009   STATUS:OLD                 
 FORMAT:FORMATTED              ACCESS:SEQUENTIAL          
 ACTION:READ                

 # File generated by Flopy version 3.9.1 on 04/10/2025 at 15:05:26.

 OPENED 09_nwt_p03.chd
 FILE TYPE:CHD6               UNIT 1010   STATUS:OLD                 
 FORMAT:FORMATTED              ACCESS:SEQUENTIAL          
 ACTION:READ                

 # File generated by Flopy version 3.9.1 on 04/10/2025 at 15:05:26.

 READING SIMULATION OPTIONS
    MAXIMUM NUMBER OF ERRORS THAT WILL BE STORED IS 1000
 END OF SIMULATION OPTIONS

 READING SIMULATION TIMING

 TDIS -- TEMPORAL DISCRETIZATION PACKAGE,
 VERSION 1 : 11/13/2014 - INPUT READ FROM MEMPATH: __INPUT__/SIM/TDIS                                
 PROCESSING TDIS OPTIONS
    SIMULATION TIME UNIT IS DAYS
 END OF TDIS OPTIONS
 PROCESSING TDIS DIMENSIONS
    1 STRESS PERIOD(S) IN SIMULATION
 END OF TDIS DIMENSIONS
 PROCESSING TDIS PERIODDATA


 STRESS PERIOD     LENGTH       TIME STEPS     MULTIPLIER FOR DELT
 ----------------------------------------------------------------------------
        1         365.0000          1                    1.000
 END OF TDIS PERIODDATA
 END OF SIMULATION TIMING

 READING SIMULATION MODELS
    GWF6 model 1 will be created
 END OF SIMULATION MODELS

 READING SIMULATION EXCHANGES
 END OF SIMULATION EXCHANGES

 READING SOLUTIONGROUP

 Creating solution: SLN_1           

 OPENED 09_nwt_p03.ims
 FILE TYPE:IMS   UNIT 1012   STATUS:OLD                 
 FORMAT:FORMATTED              ACCESS:SEQUENTIAL          
 ACTION:READ                

 END OF SOLUTIONGROUP

PROCESSING MODEL CONNECTIONS

 IMS -- ITERATIVE MODEL SOLUTION PACKAGE, VERSION 6, 4/28/2017
         INPUT READ FROM UNIT 1012
 # File generated by Flopy version 3.9.1 on 04/10/2025 at 15:05:26.

 PROCESSING IMS OPTIONS
 SIMPLE OPTION:
 DEFAULT SOLVER INPUT VALUES FOR FAST SOLUTIONS
 END OF IMS OPTIONS

 PROCESSING IMS NONLINEAR
 END OF IMS NONLINEAR DATA
 ***UNDER-RELAXATION WILL NOT BE USED***
 

 PROCESSING LINEAR DATA
 END OF LINEAR DATA
 ***IMS LINEAR SOLVER WILL BE USED***

 IMSLINEAR -- UNSTRUCTURED LINEAR SOLUTION PACKAGE, VERSION 8, 04/28/2017
 An asymmetric matrix will be solved

 OUTER ITERATION CONVERGENCE CRITERION    (DVCLOSE) =    0.100000E-08
 MAXIMUM NUMBER OF OUTER ITERATIONS        (MXITER) = 500
 SOLVER PRINTOUT INDEX                     (IPRIMS) = 2
 NONLINEAR ITERATION METHOD            (NONLINMETH) = 0
 LINEAR SOLUTION METHOD                   (LINMETH) = 1

       SOLUTION BY THE BICONJUGATE-GRADIENT STABILIZED METHOD
 ------------------------------------------------------------------
 MAXIMUM OF 500 CALLS OF SOLUTION ROUTINE
 MAXIMUM OF 500 INTERNAL ITERATIONS PER CALL TO SOLUTION ROUTINE
 LINEAR ACCELERATION METHOD            = BCGS      
 MATRIX PRECONDITIONING TYPE           = INCOMPLETE LU       
 MATRIX SCALING APPROACH               = NO SCALING          
 MATRIX REORDERING APPROACH            = ORIGINAL ORDERING        
 NUMBER OF ORTHOGONALIZATIONS          = 0
 HEAD CHANGE CRITERION FOR CLOSURE     =    0.10000E-08
 RESIDUAL CHANGE CRITERION FOR CLOSURE =    0.10000E-05
 RESIDUAL CONVERGENCE OPTION           = 0
 RESIDUAL CONVERGENCE NORM             = INFINITY NORM   
 RELAXATION FACTOR                     =    0.00000E+00



 
    Solving:  Stress period:     1    Time step:     1
 
1
 STRESS PERIOD NO. 1, LENGTH =   365.0000    
 ------------------------------------------
 NUMBER OF TIME STEPS = 1
 MULTIPLIER FOR DELT =     1.000
 INITIAL TIME STEP SIZE =   365.0000    



 PSEUDO-TRANSIENT CONTINUATION WILL BE APPLIED TO MODEL 1 ("09_NWT_P03") DURING THIS TIME STEP

 SLN_1 OUTER ITERATION SUMMARY
 ----------------------------------------------------------------------------------------------------------
                                OUTER      INNER                    STEP   MAXIMUM CHANGE MODEL-(CELLID) OR
 OUTER ITERATION STEP       ITERATION  ITERATION  MAXIMUM CHANGE SUCCESS             MODEL-PACKAGE-(NUMBER)
 ----------------------------------------------------------------------------------------------------------
 Model                              1        121      -19.457242                             1_GWF-(1,1,80)
 Model                              2        100      -5.6446877                            1_GWF-(1,66,72)
 Model                              3        159       969.88523                              1_GWF-(1,1,4)
 Model                              4         76       1421.7259                            1_GWF-(1,34,17)
 Model                              5         65      -1299.5770                            1_GWF-(1,34,17)
 Model                              6         80       507.28939                            1_GWF-(1,54,21)
 Model                              7         89      -424.05063                            1_GWF-(1,54,21)
 Model                              8         98       379.68281                            1_GWF-(1,78,23)
 Model                              9         93       615.52132                            1_GWF-(1,80,33)
 Model                             10         92      -559.07368                            1_GWF-(1,80,33)
 Model                             11        112      -42.498289                            1_GWF-(1,77,32)
 Model                             12        115      -24.940904                            1_GWF-(1,77,32)
 Model                             13        109      -13.636658                             1_GWF-(1,2,32)
 Model                             14        108      -7.3445486                             1_GWF-(1,2,32)
 Model                             15        100      -5.3895121                            1_GWF-(1,28,30)
 Model                             16        103      -2.5338870                             1_GWF-(1,9,30)
 Model                             17         92      -2.3922541                            1_GWF-(1,71,37)
 Model                             18         93       2.1004970                            1_GWF-(1,78,45)
 Model                             19         92      -1.2401929                            1_GWF-(1,78,45)
 Model                             20        136      -2.5638039                            1_GWF-(1,72,49)
 Model                             21        102       2.9173639                            1_GWF-(1,71,49)
 Model                             22         93       24.010672                            1_GWF-(1,78,44)
 Model                             23        110      -12.103243                            1_GWF-(1,78,44)
 Model                             24        146      -62.313498                            1_GWF-(1,78,46)
 Model                             25         99      -278.21482                            1_GWF-(1,78,46)
 Model                             26        109      -163.18863                            1_GWF-(1,78,46)
 Model                             27        144       126.82449                            1_GWF-(1,78,46)
 Model                             28         85      -63.587738                            1_GWF-(1,78,46)
 Model                             29         68      -31.921043                            1_GWF-(1,78,46)
 Model                             30        131      -15.958030                            1_GWF-(1,78,46)
 Model                             31         78      -7.9485370                            1_GWF-(1,78,46)
 Model                             32        159      -11.578628                            1_GWF-(1,73,50)
 Model                             33         57       32.261324                            1_GWF-(1,73,50)
 Model                             34         81      -16.270390                            1_GWF-(1,73,50)
 Model                             35         59      -8.2142294                            1_GWF-(1,73,50)
 Model                             36         59      -4.1636843                            1_GWF-(1,73,50)
 Model                             37         56      -206.93849                            1_GWF-(1,76,45)
 Model                             38         71       96.143194                            1_GWF-(1,76,45)
 Model                             39         66      -48.148940                            1_GWF-(1,76,45)
 Model                             40         72      -24.159284                            1_GWF-(1,76,45)
 Model                             41        120      -12.097542                            1_GWF-(1,76,45)
 Model                             42         54      -50.067981                            1_GWF-(1,70,52)
 Model                             43         60      -350.01020                            1_GWF-(1,70,52)
 Model                             44         49       73.203394                            1_GWF-(1,66,52)
 Model                             45         76      -36.669005                            1_GWF-(1,66,52)
 Model                             46         74      -157.66667                            1_GWF-(1,70,50)
 Model                             47         80      -182.35256                            1_GWF-(1,71,50)
 Model                             48         54      -93.272341                            1_GWF-(1,71,50)
 Model                             49         50      -49.210882                            1_GWF-(1,71,51)
 Model                             50         61      -13.225108                            1_GWF-(1,76,46)
 Model                             51         44       733.13545                            1_GWF-(1,76,46)
 Model                             52         44      -722.96053                            1_GWF-(1,76,46)
 Model                             53         58      -25.070619                            1_GWF-(1,74,47)
 Model                             54         55      -12.244663                            1_GWF-(1,74,47)
 Model                             55         51      -6.0643834                            1_GWF-(1,74,47)
 Model                             56         51       6.3846772                            1_GWF-(1,64,54)
 Model                             57         56      -3.2076961                            1_GWF-(1,64,54)
 Model                             58         84      -1.5930451                            1_GWF-(1,64,54)
 Model                             59         42     -0.85811965                            1_GWF-(1,64,54)
 Model                             60         44       2.0404990                            1_GWF-(1,70,46)
 Model                             61         53       1.2699687                            1_GWF-(1,66,51)
 Model                             62         46     -0.65583159                            1_GWF-(1,66,51)
 Model                             63         39      0.93481396                            1_GWF-(1,74,48)
 Model                             64         40     -0.57999190                            1_GWF-(1,74,50)
 Model                             65         49      -1.4890349                            1_GWF-(1,74,50)
 Model                             66         48       2.2691302                            1_GWF-(1,74,50)
 Model                             67         41      -1.9817528                            1_GWF-(1,71,50)
 Model                             68         77       4.3466682                            1_GWF-(1,71,50)
 Model                             69         44      -2.2401060                            1_GWF-(1,71,50)
 Model                             70         42      -1.2223453                            1_GWF-(1,71,50)
 Model                             71         38     -0.57372893                            1_GWF-(1,71,50)
 Model                             72         38     -0.24913398                            1_GWF-(1,71,50)
 Model                             73         41      0.37584158                            1_GWF-(1,67,51)
 Model                             74         39       1.4005985                            1_GWF-(1,71,51)
 Model                             75         39     -0.78304188                            1_GWF-(1,71,51)
 Model                             76         47     -0.50716734                            1_GWF-(1,70,52)
 Model                             77         37      -1.3712538                            1_GWF-(1,70,52)
 Model                             78         38       1.0552058                            1_GWF-(1,65,52)
 Model                             79         43     -0.67229276                            1_GWF-(1,70,52)
 Model                             80         54     -0.28092268                            1_GWF-(1,70,52)
 Model                             81         66     -0.18834314                            1_GWF-(1,65,52)
 Model                             82         38 -8.46722609E-02                            1_GWF-(1,65,52)
 Model                             83         31 -5.01712309E-02                            1_GWF-(1,70,51)
 Model                             84         47 -4.90690620E-03                            1_GWF-(1,65,52)
 Model                             85         14 -4.50382995E-04                            1_GWF-(1,70,50)
 Model                             86          8 -1.94708150E-07                            1_GWF-(1,70,50)
 Model                             87          4  1.07682609E-08                            1_GWF-(1,64,52)
 Model                             88          1 -5.66075187E-10       *                    1_GWF-(1,65,51)
 ----------------------------------------------------------------------------------------------------------


 88 CALLS TO NUMERICAL SOLUTION IN TIME STEP 1 STRESS PERIOD 1
 6187 TOTAL ITERATIONS

 SLN_1 INNER ITERATION SUMMARY
 --------------------------------------------------------------------------------------------------------------------------------------
      TOTAL      OUTER      INNER                                                            MAXIMUM                                   
  ITERATION  ITERATION  ITERATION  MAXIMUM CHANGE      MAXIMUM CHANGE MODEL-(CELLID)        RESIDUAL    MAXIMUM RESIDUAL MODEL-(CELLID)
 --------------------------------------------------------------------------------------------------------------------------------------
          1          1          1      -7.0978180                    1_GWF-(1,80,80)       14.636890                    1_GWF-(1,78,79)
          2          1          2       10.117103                    1_GWF-(1,38,80)       9.8597300                      1_GWF-(1,2,2)
          3          1          3       3.2556967                    1_GWF-(1,36,80)      -8.3702946                     1_GWF-(1,2,79)
          4          1          4       1.3014030                    1_GWF-(1,35,80)       3.8442630                     1_GWF-(1,79,2)
          5          1          5       1.1997736                    1_GWF-(1,35,80)       2.8934898                     1_GWF-(1,79,2)
          6          1          6      -1.5756366                    1_GWF-(1,13,77)      -2.5740622                      1_GWF-(1,1,2)
          7          1          7      -1.8631669                    1_GWF-(1,14,78)      -3.3350138                      1_GWF-(1,1,2)
          8          1          8      -1.3675236                    1_GWF-(1,15,78)      -2.3853920                      1_GWF-(1,1,2)
          9          1          9      0.98239708                      1_GWF-(1,1,1)      -2.7718436                      1_GWF-(1,1,2)
         10          1         10     -0.72815181                    1_GWF-(1,24,80)      -3.4832587                      1_GWF-(1,1,2)
         11          1         11  8.42496867E-02                      1_GWF-(1,1,2)      -1.1099471                      1_GWF-(1,2,2)
         12          1         12      0.48134661                    1_GWF-(1,29,80)      -3.1122750                      1_GWF-(1,2,1)
         13          1         13       2.3091871                    1_GWF-(1,29,80)      -3.1774066                      1_GWF-(1,2,1)
         14          1         14       3.8087375                    1_GWF-(1,30,80)      -10.302594                      1_GWF-(1,2,1)
         15          1         15       5.4400895                    1_GWF-(1,31,80)      -4.8562959                      1_GWF-(1,2,1)
         16          1         16       13.076378                    1_GWF-(1,33,80)      -15.179993                      1_GWF-(1,2,1)
         17          1         17       40.089178                    1_GWF-(1,33,80)      -17.356250                      1_GWF-(1,2,1)
         18          1         18       115.86712                    1_GWF-(1,34,80)      -70.913415                      1_GWF-(1,2,1)
         19          1         19       5576.0338                    1_GWF-(1,34,80)      -851.88491                      1_GWF-(1,2,1)
         20          1         20      -6085.6169                    1_GWF-(1,34,80)       122.33851                      1_GWF-(1,2,1)
         21          1         21       69.590706                    1_GWF-(1,34,80)       39.893692                      1_GWF-(1,2,1)
         22          1         22       46.063120                    1_GWF-(1,34,80)      -17.525025                    1_GWF-(1,34,79)
         23          1         23      -67.901055                    1_GWF-(1,43,49)       75.879308                      1_GWF-(1,1,2)
         24          1         24       13.391663                    1_GWF-(1,35,80)       15.449294                      1_GWF-(1,2,2)
         25          1         25       163.10822                    1_GWF-(1,35,80)       14.166603                      1_GWF-(1,2,1)
         26          1         26       24.934694                    1_GWF-(1,33,80)      -11.487717                      1_GWF-(1,1,2)
         27          1         27       9.3215293                    1_GWF-(1,35,80)      -1.8513689                      1_GWF-(1,2,1)
         28          1         28      -35.488163                    1_GWF-(1,35,80)      -1.9948188                     1_GWF-(1,2,79)
         29          1         29       2.3547786                    1_GWF-(1,34,80)      0.87218528                      1_GWF-(1,3,3)
         30          1         30       2.8830703                    1_GWF-(1,32,80)       2.9414980                      1_GWF-(1,3,3)
         31          1         31      0.19756400                      1_GWF-(1,2,4)      0.90554514                      1_GWF-(1,1,2)
         32          1         32     -0.74330726                      1_GWF-(1,1,1)      0.77929542                      1_GWF-(1,2,2)
         33          1         33  4.57997332E-02                    1_GWF-(1,34,80)      0.71645228                      1_GWF-(1,2,2)
         34          1         34      0.34974143                    1_GWF-(1,34,80)      0.78221724                      1_GWF-(1,2,2)
         35          1         35       1.2728421                    1_GWF-(1,34,80)      0.67187196                      1_GWF-(1,2,2)
         36          1         36       1.6915284                    1_GWF-(1,34,80)      0.62952910                      1_GWF-(1,2,2)
         37          1         37       1.1364293                    1_GWF-(1,34,80)      0.37855135                      1_GWF-(1,2,2)
         38          1         38      0.58650620                    1_GWF-(1,34,80)      0.55630408                      1_GWF-(1,2,2)
         39          1         39      0.16487642                    1_GWF-(1,34,80)      0.29242548                      1_GWF-(1,2,2)
         40          1         40     -0.75391071                      1_GWF-(1,1,1)      0.84090548                      1_GWF-(1,2,2)
         41          1         41 -2.14968602E-02                      1_GWF-(1,2,2)      0.17447264                      1_GWF-(1,2,4)
         42          1         42  5.72973569E-02                      1_GWF-(1,1,1)      0.18846113                      1_GWF-(1,2,4)
         43          1         43      0.21565364                      1_GWF-(1,1,1)      0.19272976                      1_GWF-(1,2,4)
         44          1         44      0.22187029                      1_GWF-(1,1,1)      0.20523654                      1_GWF-(1,2,4)
         45          1         45      0.26013737                      1_GWF-(1,1,1)      0.20518605                      1_GWF-(1,2,4)
         46          1         46      0.63985796                      1_GWF-(1,1,1)      0.22283751                      1_GWF-(1,2,4)
         47          1         47       2.8998972                      1_GWF-(1,1,1)      0.30544496                      1_GWF-(1,2,5)
         48          1         48      -16.918578                      1_GWF-(1,1,1)     -0.20429735                      1_GWF-(1,4,2)
         49          1         49       8.1761915                      1_GWF-(1,1,1)      0.14922549                      1_GWF-(1,2,2)
         50          1         50      0.41837288                      1_GWF-(1,1,1)      0.12769034                      1_GWF-(1,2,2)
         51          1         51  1.06024290E-02                    1_GWF-(1,33,80)  6.58365082E-02                      1_GWF-(1,3,2)
         52          1         52       2.3793483                      1_GWF-(1,1,1)      0.14237002                      1_GWF-(1,3,2)
         53          1         53      -3.0880124                      1_GWF-(1,1,1)      0.14097077                      1_GWF-(1,2,2)
         54          1         54  3.77033405E-03                      1_GWF-(1,1,4)  2.53776721E-02                      1_GWF-(1,3,2)
         55          1         55  3.00498136E-02                      1_GWF-(1,1,1)  2.70176059E-02                      1_GWF-(1,3,2)
         56          1         56      0.19286687                      1_GWF-(1,1,1)  5.05126364E-02                      1_GWF-(1,3,2)
         57          1         57      0.41030676                      1_GWF-(1,1,1)  6.01871554E-02                      1_GWF-(1,3,2)
         58          1         58       3.4762208                      1_GWF-(1,1,1)      0.22160043                      1_GWF-(1,3,2)
         59          1         59      -5.2109028                      1_GWF-(1,1,1) -1.83851834E-02                      1_GWF-(1,3,2)
         60          1         60      0.24258304                      1_GWF-(1,1,1) -1.09449994E-02                      1_GWF-(1,3,2)
         61          1         61  2.45606247E-02                      1_GWF-(1,1,1) -5.59038084E-03                      1_GWF-(1,3,2)
         62          1         62  1.85490780E-02                      1_GWF-(1,1,1) -1.73961689E-03                      1_GWF-(1,3,2)
         63          1         63  6.93357522E-03                      1_GWF-(1,1,1) -4.71689279E-03                      1_GWF-(1,2,3)
         64          1         64 -4.72345691E-03                      1_GWF-(1,1,1) -1.26457319E-03                      1_GWF-(1,3,2)
         65          1         65 -2.66645113E-03                      1_GWF-(1,1,1) -1.76052763E-03                      1_GWF-(1,3,2)
         66          1         66  2.29167169E-03                      1_GWF-(1,1,1) -3.29761174E-03                      1_GWF-(1,3,2)
         67          1         67  6.99040503E-04                      1_GWF-(1,1,1) -1.57947973E-03                      1_GWF-(1,3,2)
         68          1         68 -8.78759780E-04                      1_GWF-(1,1,1) -1.59926243E-03                      1_GWF-(1,2,3)
         69          1         69  4.92354320E-04                      1_GWF-(1,1,1) -2.52383488E-03                      1_GWF-(1,3,2)
         70          1         70 -1.31572948E-02                      1_GWF-(1,1,1) -1.84620270E-03                      1_GWF-(1,2,2)
         71          1         71  1.01613648E-02                      1_GWF-(1,1,1) -3.59356057E-03                      1_GWF-(1,3,2)
         72          1         72  3.17010393E-02                      1_GWF-(1,1,1) -9.22756133E-04                      1_GWF-(1,3,2)
         73          1         73  9.04250652E-04                      1_GWF-(1,1,1) -6.51873009E-04                      1_GWF-(1,3,2)
         74          1         74  8.88463457E-03                      1_GWF-(1,1,1) -9.14083162E-04                      1_GWF-(1,3,2)
         75          1         75  1.87204228E-05                    1_GWF-(1,61,80) -3.32265240E-04                      1_GWF-(1,2,2)
         76          1         76  5.39478107E-04                      1_GWF-(1,1,1) -3.01651365E-04                      1_GWF-(1,2,2)
         77          1         77  2.24670926E-03                      1_GWF-(1,1,1) -6.59835842E-04                      1_GWF-(1,3,2)
         78          1         78  1.23474147E-03                      1_GWF-(1,1,1) -1.47817319E-04                      1_GWF-(1,2,2)
         79          1         79  2.16330639E-03                      1_GWF-(1,1,1) -1.44670762E-04                      1_GWF-(1,3,2)
         80          1         80  1.82415157E-03                      1_GWF-(1,1,1)  1.27695342E-04                      1_GWF-(1,3,2)
         81          1         81 -5.59520986E-04                      1_GWF-(1,1,1)  1.96990242E-04                      1_GWF-(1,2,3)
         82          1         82  6.74375822E-06                    1_GWF-(1,61,80) -5.98388664E-05                    1_GWF-(1,61,79)
         83          1         83  1.70893390E-05                      1_GWF-(1,1,1) -5.91016339E-05                    1_GWF-(1,61,79)
         84          1         84  3.20526744E-04                      1_GWF-(1,1,1)  9.06264308E-05                      1_GWF-(1,2,3)
         85          1         85  2.25862743E-04                      1_GWF-(1,1,1)  3.54000980E-05                      1_GWF-(1,2,3)
         86          1         86  1.19549451E-04                      1_GWF-(1,1,1)  2.81779362E-05                    1_GWF-(1,33,79)
         87          1         87  2.73277322E-04                      1_GWF-(1,1,1)  3.54938728E-05                      1_GWF-(1,2,3)
         88          1         88  1.23344739E-04                      1_GWF-(1,1,1)  1.33242681E-05                    1_GWF-(1,34,79)
         89          1         89 -7.37982970E-05                    1_GWF-(1,34,80)  3.88998310E-05                      1_GWF-(1,2,3)
         90          1         90 -5.52946472E-05                      1_GWF-(1,1,1)  3.34549510E-06                    1_GWF-(1,35,79)
         91          1         91  1.16261048E-04                      1_GWF-(1,1,1)  1.04877913E-05                      1_GWF-(1,2,2)
         92          1         92 -1.70048706E-06                      1_GWF-(1,1,2)  1.63192981E-06                      1_GWF-(1,2,3)
         93          1         93 -3.52315284E-06                    1_GWF-(1,35,80)  7.83974023E-06                      1_GWF-(1,2,2)
         94          1         94  7.74003908E-06                      1_GWF-(1,1,1)  3.71218770E-06                      1_GWF-(1,2,3)
         95          1         95 -1.19266365E-05                      1_GWF-(1,1,1)  2.50828446E-06                      1_GWF-(1,2,3)
         96          1         96 -1.89351653E-06                      1_GWF-(1,1,1)  1.35395063E-06                      1_GWF-(1,3,2)
         97          1         97  1.32949574E-07                    1_GWF-(1,35,80)  6.12916055E-07                    1_GWF-(1,36,79)
         98          1         98 -2.69417958E-06                    1_GWF-(1,35,80)  2.90001391E-06                      1_GWF-(1,2,1)
         99          1         99  1.33494298E-06                      1_GWF-(1,1,2)  2.90794201E-07                      1_GWF-(1,2,1)
        100          1        100  1.45966358E-07                    1_GWF-(1,41,48)  6.48146162E-07                      1_GWF-(1,2,1)
        101          1        101 -5.34180805E-07                      1_GWF-(1,1,1)  2.58253728E-07                    1_GWF-(1,35,79)
        102          1        102  1.50947936E-06                      1_GWF-(1,1,1)  4.11568204E-07                      1_GWF-(1,2,1)
        103          1        103  1.32900069E-07                      1_GWF-(1,1,2)  1.74054958E-07                      1_GWF-(1,2,1)
        104          1        104  2.61163466E-07                    1_GWF-(1,42,48)  3.96345008E-07                      1_GWF-(1,1,2)
        105          1        105 -5.10922761E-08                      1_GWF-(1,1,2)  8.63655709E-08                      1_GWF-(1,2,1)
        106          1        106 -3.82690612E-08                    1_GWF-(1,35,80)  2.68845364E-07                      1_GWF-(1,1,2)
        107          1        107  8.60525835E-07                      1_GWF-(1,1,1)  1.76424061E-07                      1_GWF-(1,2,2)
        108          1        108 -1.17596241E-06                      1_GWF-(1,1,1)  1.22017054E-07                      1_GWF-(1,2,1)
        109          1        109 -1.46342815E-08                    1_GWF-(1,36,80)  6.40094298E-08                      1_GWF-(1,1,2)
        110          1        110  1.24829976E-08                      1_GWF-(1,1,1)  3.45850459E-08                      1_GWF-(1,1,2)
        111          1        111  4.81461612E-07                      1_GWF-(1,1,1)  1.18167943E-07                      1_GWF-(1,1,2)
        112          1        112 -9.46922479E-07                      1_GWF-(1,1,1) -7.05514311E-08                      1_GWF-(1,1,2)
        113          1        113  1.84339466E-07                      1_GWF-(1,1,1) -4.53858640E-09                      1_GWF-(1,1,2)
        114          1        114 -1.98874954E-08                      1_GWF-(1,1,1) -3.47111110E-09                      1_GWF-(1,2,2)
        115          1        115  4.54838794E-09                      1_GWF-(1,1,1) -2.77305342E-09                      1_GWF-(1,2,2)
        116          1        116  7.70003411E-09                      1_GWF-(1,1,1) -1.87678214E-09                      1_GWF-(1,2,2)
        117          1        117  2.33859631E-09                      1_GWF-(1,1,1) -1.56329764E-09                      1_GWF-(1,2,2)
        118          1        118  3.07158363E-09                      1_GWF-(1,1,1) -1.15211671E-09                      1_GWF-(1,2,2)
        119          1        119  1.21047657E-09                      1_GWF-(1,1,1) -9.92407586E-10                      1_GWF-(1,2,2)
        120          1        120  1.10026996E-09                      1_GWF-(1,1,1) -8.48472021E-10                      1_GWF-(1,2,2)
        121          1        121  8.15431824E-10                      1_GWF-(1,1,1) -7.42709460E-10                      1_GWF-(1,2,2)
        122          2          1       6.6018046                      1_GWF-(1,1,1)      -3.4300645                    1_GWF-(1,79,80)
        123          2          2      -2.9108018                    1_GWF-(1,74,79)       1.8274845                    1_GWF-(1,71,79)
        124          2          3       1.1091297                     1_GWF-(1,80,1)      -3.9296209                      1_GWF-(1,2,2)
        125          2          4      -3.8172345                    1_GWF-(1,24,79)       1.1695241                    1_GWF-(1,28,79)
        126          2          5      0.17999006                      1_GWF-(1,1,3)      -1.2138327                      1_GWF-(1,2,2)
        127          2          6       2.6661377                    1_GWF-(1,22,48)      -3.1128833                      1_GWF-(1,2,1)
        128          2          7     -0.77645251                    1_GWF-(1,27,79)      -3.0226262                      1_GWF-(1,2,1)
        129          2          8      0.83639770                      1_GWF-(1,2,1)       1.8694781                    1_GWF-(1,30,79)
        130          2          9      -3.8103820                      1_GWF-(1,1,1)       2.0764680                    1_GWF-(1,30,79)
        131          2         10       33.128065                      1_GWF-(1,1,1)       2.0914155                      1_GWF-(1,2,1)
        132          2         11       12.790971                      1_GWF-(1,1,1)       2.8522886                      1_GWF-(1,2,1)
        133          2         12      -11.860487                      1_GWF-(1,1,1)       5.4123190                      1_GWF-(1,2,1)
        134          2         13      -13.119079                      1_GWF-(1,1,1)      -1.4377546                      1_GWF-(1,1,2)
        135          2         14       6.9502204                      1_GWF-(1,1,1)      0.74536421                      1_GWF-(1,2,1)
        136          2         15      -3.9360610                      1_GWF-(1,1,1)      0.69093104                      1_GWF-(1,2,1)
        137          2         16     -0.40044973                      1_GWF-(1,1,1)      0.24714496                      1_GWF-(1,2,1)
        138          2         17     -0.53392694                    1_GWF-(1,47,50)      0.15652818                    1_GWF-(1,45,49)
        139          2         18 -1.81389402E-02                      1_GWF-(1,2,1)      0.21832943                      1_GWF-(1,1,2)
        140          2         19      0.24057047                    1_GWF-(1,49,50)      0.15570909                    1_GWF-(1,49,50)
        141          2         20      0.33813507                    1_GWF-(1,46,50)      0.17164745                    1_GWF-(1,46,50)
        142          2         21      -1.9786589                    1_GWF-(1,48,50)      0.13397487                    1_GWF-(1,47,50)
        143          2         22      -17.127937                    1_GWF-(1,48,50)      0.35406260                      1_GWF-(1,2,1)
        144          2         23       9.0724319                    1_GWF-(1,48,50)  9.23695709E-02                      1_GWF-(1,2,1)
        145          2         24      0.39549632                    1_GWF-(1,48,50)      0.10387082                      1_GWF-(1,1,2)
        146          2         25     -0.22210198                      1_GWF-(1,1,1)  8.93622260E-02                      1_GWF-(1,2,1)
        147          2         26 -1.12695852E-02                     1_GWF-(1,80,1)  7.40647375E-02                      1_GWF-(1,2,2)
        148          2         27     -0.30553606                      1_GWF-(1,1,1)  6.94232535E-02                      1_GWF-(1,2,2)
        149          2         28     -0.69237258                      1_GWF-(1,1,1)  8.13897560E-02                      1_GWF-(1,2,1)
        150          2         29     -0.16617356                      1_GWF-(1,1,1)  6.67632723E-02                      1_GWF-(1,2,2)
        151          2         30     -0.79860511                      1_GWF-(1,1,1)  7.64681447E-02                      1_GWF-(1,1,2)
        152          2         31 -7.02022842E-02                      1_GWF-(1,1,1)  5.90014517E-02                      1_GWF-(1,2,2)
        153          2         32     -0.16181174                      1_GWF-(1,1,1)  5.71322298E-02                      1_GWF-(1,2,2)
        154          2         33     -0.34986543                      1_GWF-(1,1,1)  5.37817016E-02                      1_GWF-(1,2,2)
        155          2         34     -0.98375423                      1_GWF-(1,1,1)  4.76924404E-02                      1_GWF-(1,1,2)
        156          2         35 -1.96326584E-02                      1_GWF-(1,1,2)  4.79686519E-02                      1_GWF-(1,2,1)
        157          2         36  6.03255940E-02                      1_GWF-(1,1,1)  4.30488164E-02                      1_GWF-(1,2,2)
        158          2         37 -6.06326644E-03                      1_GWF-(1,1,1)  4.42794499E-02                      1_GWF-(1,2,2)
        159          2         38 -1.00891212E-02                      1_GWF-(1,1,1)  4.19250060E-02                      1_GWF-(1,2,2)
        160          2         39 -2.40482524E-02                      1_GWF-(1,1,1)  4.35340618E-02                      1_GWF-(1,2,2)
        161          2         40     -0.31815422                      1_GWF-(1,1,1)  4.11742997E-02                      1_GWF-(1,2,2)
        162          2         41     -0.19485231                      1_GWF-(1,1,1)  4.06967636E-02                      1_GWF-(1,2,2)
        163          2         42 -6.28512515E-02                      1_GWF-(1,1,1)  3.83118273E-02                      1_GWF-(1,2,2)
        164          2         43      0.22908748                      1_GWF-(1,1,1)  4.14202370E-02                      1_GWF-(1,2,2)
        165          2         44      -3.2564842                      1_GWF-(1,1,1)  1.40627257E-02                      1_GWF-(1,2,2)
        166          2         45     -0.13539613                      1_GWF-(1,1,1)  1.31501594E-02                      1_GWF-(1,2,2)
        167          2         46      0.49904362                      1_GWF-(1,1,1)  1.78173985E-02                      1_GWF-(1,2,2)
        168          2         47      0.43398575                      1_GWF-(1,1,1)  2.22050460E-02                      1_GWF-(1,2,2)
        169          2         48  6.00246311E-02                      1_GWF-(1,1,1)  2.21938740E-02                      1_GWF-(1,2,2)
        170          2         49     -0.46051224                      1_GWF-(1,1,1)  1.90041571E-02                      1_GWF-(1,2,2)
        171          2         50       1.9731057                      1_GWF-(1,1,1)  3.43891624E-02                      1_GWF-(1,2,1)
        172          2         51      -3.8829199                      1_GWF-(1,1,1)  1.71389107E-02                      1_GWF-(1,2,1)
        173          2         52  1.84321507E-03                      1_GWF-(1,1,2)  1.09495833E-02                      1_GWF-(1,2,2)
        174          2         53  9.43916142E-02                      1_GWF-(1,1,1)  1.12480446E-02                      1_GWF-(1,2,2)
        175          2         54  9.02506081E-02                      1_GWF-(1,1,1)  1.09062716E-02                      1_GWF-(1,2,2)
        176          2         55  3.75243774E-02                      1_GWF-(1,1,1)  1.09322727E-02                      1_GWF-(1,2,2)
        177          2         56     -0.36012153                      1_GWF-(1,1,1)  1.05081949E-02                      1_GWF-(1,2,2)
        178          2         57       1.7390015                      1_GWF-(1,1,1)  1.26894901E-02                      1_GWF-(1,2,2)
        179          2         58     -0.32671278                      1_GWF-(1,1,1)  1.24905272E-02                      1_GWF-(1,2,2)
        180          2         59     -0.63817739                      1_GWF-(1,1,1)  1.21375301E-02                      1_GWF-(1,2,2)
        181          2         60       4.4388253                      1_GWF-(1,1,1)  1.60066870E-02                      1_GWF-(1,2,2)
        182          2         61      -95.754058                      1_GWF-(1,1,1) -7.31055247E-02                      1_GWF-(1,2,2)
        183          2         62       105.53759                      1_GWF-(1,1,1)  2.55940171E-02                      1_GWF-(1,2,2)
        184          2         63      -33.882561                      1_GWF-(1,1,1) -4.15806201E-03                      1_GWF-(1,2,1)
        185          2         64       1.1454172                      1_GWF-(1,1,1) -2.98239249E-03                      1_GWF-(1,2,2)
        186          2         65      0.26287050                      1_GWF-(1,1,1) -2.47711937E-03                      1_GWF-(1,1,2)
        187          2         66      -2.2285654                      1_GWF-(1,1,1) -2.99691744E-03                      1_GWF-(1,2,2)
        188          2         67      0.23314613                      1_GWF-(1,1,1) -2.82235211E-03                      1_GWF-(1,2,2)
        189          2         68     -0.12038048                      1_GWF-(1,1,1) -2.45858004E-03                      1_GWF-(1,2,2)
        190          2         69  8.23343937E-02                      1_GWF-(1,1,1) -2.40290608E-03                      1_GWF-(1,2,2)
        191          2         70 -1.12685385E-02                      1_GWF-(1,1,1) -2.44199775E-03                      1_GWF-(1,2,2)
        192          2         71  4.71032666E-02                      1_GWF-(1,1,1) -1.41028842E-03                      1_GWF-(1,2,3)
        193          2         72     -0.37719095                      1_GWF-(1,1,1) -1.31753198E-03                      1_GWF-(1,2,1)
        194          2         73       1.0377660                      1_GWF-(1,1,1) -2.21805203E-03                      1_GWF-(1,2,1)
        195          2         74      0.26198953                      1_GWF-(1,1,1) -2.16417431E-03                      1_GWF-(1,2,2)
        196          2         75      0.15377801                      1_GWF-(1,1,1) -2.70864229E-03                      1_GWF-(1,2,1)
        197          2         76 -9.03843279E-02                      1_GWF-(1,1,1) -8.71073952E-04                      1_GWF-(1,1,2)
        198          2         77  2.51451187E-02                      1_GWF-(1,1,1) -7.67165772E-04                      1_GWF-(1,2,1)
        199          2         78     -0.44467086                      1_GWF-(1,1,1)  4.83830056E-04                    1_GWF-(1,30,18)
        200          2         79      -1.5227184                      1_GWF-(1,1,1) -3.57423460E-04                      1_GWF-(1,2,1)
        201          2         80     -0.87918022                      1_GWF-(1,1,1) -1.27566314E-04                      1_GWF-(1,2,1)
        202          2         81     -0.31479512                      1_GWF-(1,1,1)  3.03474890E-05                    1_GWF-(1,30,18)
        203          2         82     -0.15292951                      1_GWF-(1,1,1)  4.28476919E-06                    1_GWF-(1,30,18)
        204          2         83  1.38254426E-03                      1_GWF-(1,1,1)  4.43762344E-06                    1_GWF-(1,29,18)
        205          2         84      0.18286806                      1_GWF-(1,1,1)  3.52763366E-05                    1_GWF-(1,30,18)
        206          2         85     -0.21999338                      1_GWF-(1,1,1)  3.67977868E-06                      1_GWF-(1,2,2)
        207          2         86 -4.08529010E-04                      1_GWF-(1,1,1)  3.38370071E-06                      1_GWF-(1,2,2)
        208          2         87  1.69530675E-03                      1_GWF-(1,1,1)  3.39223621E-06                      1_GWF-(1,2,2)
        209          2         88 -4.56904698E-03                      1_GWF-(1,1,1)  4.37310980E-06                      1_GWF-(1,2,2)
        210          2         89  2.26289041E-02                      1_GWF-(1,1,1) -6.36094491E-06                      1_GWF-(1,2,1)
        211          2         90 -8.62036137E-03                      1_GWF-(1,1,1) -1.33396193E-06                      1_GWF-(1,2,2)
        212          2         91  3.76991436E-03                      1_GWF-(1,1,1) -2.20170677E-06                      1_GWF-(1,2,1)
        213          2         92 -6.29101452E-03                      1_GWF-(1,1,1) -1.72838291E-07                      1_GWF-(1,2,1)
        214          2         93 -4.86436912E-04                      1_GWF-(1,1,1)  2.10726186E-08                      1_GWF-(1,2,2)
        215          2         94  2.23769662E-05                      1_GWF-(1,1,1)  1.54661606E-08                      1_GWF-(1,2,2)
        216          2         95  1.36878965E-03                      1_GWF-(1,1,1)  1.95790565E-07                    1_GWF-(1,31,18)
        217          2         96 -1.34365390E-03                      1_GWF-(1,1,1)  1.62825163E-09                      1_GWF-(1,2,1)
        218          2         97  8.26731454E-06                      1_GWF-(1,1,1)  1.48657389E-09                      1_GWF-(1,2,2)
        219          2         98  2.93175920E-08                      1_GWF-(1,1,1)  1.49970211E-09                      1_GWF-(1,2,2)
        220          2         99  6.34597814E-08                      1_GWF-(1,1,1)  1.52814903E-09                      1_GWF-(1,2,2)
        221          2        100 -4.13097250E-10                      1_GWF-(1,1,1)  1.52796484E-09                      1_GWF-(1,2,2)
        222          3          1       7.2962224                     1_GWF-(1,80,1)     -0.61161789                    1_GWF-(1,59,79)
        223          3          2       2.9219200                    1_GWF-(1,28,18)      0.42119588                    1_GWF-(1,65,79)
        224          3          3      -2.0339860                    1_GWF-(1,31,18)      0.29900396                    1_GWF-(1,58,50)
        225          3          4      -6.7849891                    1_GWF-(1,32,49)      0.39771136                    1_GWF-(1,37,49)
        226          3          5      -16.343592                    1_GWF-(1,34,49)      -2.1054262                    1_GWF-(1,34,49)
        227          3          6       11.066532                    1_GWF-(1,34,49)     -0.85402738                    1_GWF-(1,34,49)
        228          3          7       7.3960082                    1_GWF-(1,35,49)     -0.53293758                      1_GWF-(1,1,2)
        229          3          8      -7.2965374                     1_GWF-(1,80,1)      -1.2956614                      1_GWF-(1,1,2)
        230          3          9       21.687255                     1_GWF-(1,80,1)     -0.98277295                    1_GWF-(1,23,49)
        231          3         10      -4.4960117                     1_GWF-(1,80,1)     -0.21099483                    1_GWF-(1,37,49)
        232          3         11       1.2710822                     1_GWF-(1,80,1)     -0.27329135                    1_GWF-(1,38,49)
        233          3         12      -4.9278828                     1_GWF-(1,80,1) -3.49289626E-02                      1_GWF-(1,2,2)
        234          3         13     -0.25938270                     1_GWF-(1,80,1) -3.31436714E-02                      1_GWF-(1,2,2)
        235          3         14     -0.57519167                     1_GWF-(1,80,1) -3.34854880E-02                      1_GWF-(1,2,2)
        236          3         15      -1.0146962                     1_GWF-(1,80,1) -2.93365425E-02                      1_GWF-(1,2,2)
        237          3         16     -0.61509527                     1_GWF-(1,80,1) -2.78984683E-02                      1_GWF-(1,2,2)
        238          3         17     -0.92929861                     1_GWF-(1,80,1) -1.28917736E-02                      1_GWF-(1,2,2)
        239          3         18      -18.018265                     1_GWF-(1,80,1)      0.18489284                      1_GWF-(1,2,2)
        240          3         19       17.091498                     1_GWF-(1,80,1) -4.51382236E-03                      1_GWF-(1,2,2)
        241          3         20 -6.37345116E-02                     1_GWF-(1,80,1) -4.69607327E-03                      1_GWF-(1,2,2)
        242          3         21      0.96487391                     1_GWF-(1,80,1) -2.36699087E-02                      1_GWF-(1,2,2)
        243          3         22      -1.2441587                     1_GWF-(1,80,1) -5.26417587E-03                      1_GWF-(1,2,2)
        244          3         23  5.69440440E-02                     1_GWF-(1,80,1) -5.23113045E-03                      1_GWF-(1,2,2)
        245          3         24     -0.23238534                     1_GWF-(1,80,1) -5.58327860E-03                      1_GWF-(1,2,2)
        246          3         25       6.7108985                     1_GWF-(1,80,1)  1.26132309E-02                      1_GWF-(1,2,2)
        247          3         26      -7.9091706                     1_GWF-(1,80,1) -8.95305394E-03                      1_GWF-(1,2,2)
        248          3         27      -1.0870217                     1_GWF-(1,80,1) -1.01989309E-02                      1_GWF-(1,2,2)
        249          3         28       3.7164393                     1_GWF-(1,80,1) -2.58368094E-03                      1_GWF-(1,2,2)
        250          3         29       178.53531                     1_GWF-(1,80,1)      0.35829317                      1_GWF-(1,2,2)
        251          3         30      -175.53669                     1_GWF-(1,80,1)  4.04590228E-03                      1_GWF-(1,2,2)
        252          3         31       3.9074593                     1_GWF-(1,80,1)  1.28247878E-02                      1_GWF-(1,2,2)
        253          3         32      -3.8865698                     1_GWF-(1,80,1)  8.01894861E-03                    1_GWF-(1,32,47)
        254          3         33       18.573672                     1_GWF-(1,80,1)  3.93717148E-02                      1_GWF-(1,2,2)
        255          3         34       1163.5267                     1_GWF-(1,80,1)       2.0106157                      1_GWF-(1,2,2)
        256          3         35      -1203.9839                     1_GWF-(1,80,1) -2.84230848E-02                      1_GWF-(1,2,2)
        257          3         36       5.2480226                     1_GWF-(1,80,1) -1.23390934E-02                      1_GWF-(1,2,2)
        258          3         37      -1.2920311                     1_GWF-(1,80,1) -1.29370112E-02                      1_GWF-(1,2,2)
        259          3         38      -2.4960377                     1_GWF-(1,80,1) -1.31586142E-02                      1_GWF-(1,2,2)
        260          3         39       13.611972                     1_GWF-(1,80,1) -1.10801512E-02                      1_GWF-(1,2,2)
        261          3         40       25.378840                     1_GWF-(1,80,1) -7.96900142E-03                      1_GWF-(1,2,2)
        262          3         41      -69.955018                     1_GWF-(1,80,1) -8.71812080E-03                      1_GWF-(1,2,2)
        263          3         42      -6.8715504                     1_GWF-(1,80,1) -9.15242608E-03                     1_GWF-(1,79,2)
        264          3         43       1.4917756                     1_GWF-(1,80,1) -8.85816140E-03                     1_GWF-(1,79,2)
        265          3         44 -8.18350571E-03                      1_GWF-(1,1,4) -8.85996747E-03                     1_GWF-(1,79,2)
        266          3         45       56.116981                     1_GWF-(1,80,1) -4.38264005E-02                      1_GWF-(1,2,2)
        267          3         46      -7.9208716                     1_GWF-(1,80,1) -3.69286134E-02                      1_GWF-(1,2,2)
        268          3         47      -37.331813                     1_GWF-(1,80,1) -1.23503896E-02                      1_GWF-(1,2,2)
        269          3         48      -29.075906                     1_GWF-(1,80,1) -1.22228799E-02                     1_GWF-(1,79,2)
        270          3         49       1.2149071                     1_GWF-(1,80,1) -1.19920781E-02                     1_GWF-(1,79,2)
        271          3         50     -0.29491844                      1_GWF-(1,1,4) -1.20092803E-02                     1_GWF-(1,79,2)
        272          3         51      -14.377209                      1_GWF-(1,1,4) -1.25233021E-02                     1_GWF-(1,79,2)
        273          3         52       32.182859                      1_GWF-(1,1,4) -1.01359329E-02                     1_GWF-(1,79,2)
        274          3         53       22.169877                      1_GWF-(1,1,4) -9.08591612E-03                     1_GWF-(1,79,2)
        275          3         54       66.339396                      1_GWF-(1,1,4) -5.81762946E-03                     1_GWF-(1,79,2)
        276          3         55       130.31229                      1_GWF-(1,1,4) -5.40749848E-03                      1_GWF-(1,2,2)
        277          3         56      -11.037129                      1_GWF-(1,1,4) -4.78851403E-03                      1_GWF-(1,2,2)
        278          3         57      -4.5742898                      1_GWF-(1,1,4) -4.52935055E-03                      1_GWF-(1,2,2)
        279          3         58       12.828976                      1_GWF-(1,1,4) -2.04748060E-03                      1_GWF-(1,2,2)
        280          3         59       2.7771953                     1_GWF-(1,80,1) -3.35601171E-03                      1_GWF-(1,2,2)
        281          3         60      -2.3252083                     1_GWF-(1,80,1) -2.35075870E-03                      1_GWF-(1,2,2)
        282          3         61 -5.95988108E-02                     1_GWF-(1,80,1) -2.35962337E-03                      1_GWF-(1,2,2)
        283          3         62     -0.19789332                     1_GWF-(1,80,1) -2.53878742E-03                      1_GWF-(1,2,2)
        284          3         63      0.18788208                     1_GWF-(1,80,1) -5.31063607E-03                      1_GWF-(1,2,2)
        285          3         64     -0.21619980                     1_GWF-(1,80,1)  3.72354508E-03                    1_GWF-(1,36,19)
        286          3         65     -0.15814298                     1_GWF-(1,80,1) -1.30839395E-03                    1_GWF-(1,37,79)
        287          3         66      0.21342148                     1_GWF-(1,80,1) -2.01059976E-03                      1_GWF-(1,2,2)
        288          3         67  2.51754139E-03                     1_GWF-(1,80,1) -2.06479242E-03                      1_GWF-(1,2,2)
        289          3         68     -0.39478209                      1_GWF-(1,1,4) -2.30904765E-03                      1_GWF-(1,2,2)
        290          3         69       1.8953605                      1_GWF-(1,1,4) -1.48191941E-03                      1_GWF-(1,2,2)
        291          3         70  1.74285531E-02                     1_GWF-(1,80,1) -1.61775987E-03                      1_GWF-(1,2,2)
        292          3         71       4.2697819                      1_GWF-(1,1,4) -1.50775694E-03                      1_GWF-(1,2,2)
        293          3         72       27.770484                      1_GWF-(1,1,4) -1.91737157E-03                      1_GWF-(1,2,2)
        294          3         73       39.694424                      1_GWF-(1,1,4) -1.71944021E-03                      1_GWF-(1,2,2)
        295          3         74      -51.822531                      1_GWF-(1,1,4) -2.13654701E-03                      1_GWF-(1,2,2)
        296          3         75       79.579950                      1_GWF-(1,1,4) -1.55057941E-03                      1_GWF-(1,2,2)
        297          3         76       42.707572                      1_GWF-(1,1,4) -1.57896666E-03                      1_GWF-(1,2,2)
        298          3         77      -660.35243                      1_GWF-(1,1,4) -3.46607587E-03                      1_GWF-(1,2,2)
        299          3         78       1075.4847                      1_GWF-(1,1,4) -4.09819239E-04                      1_GWF-(1,2,2)
        300          3         79       221.71312                      1_GWF-(1,1,4)  2.14228382E-04                      1_GWF-(1,2,2)
        301          3         80      -68.119418                      1_GWF-(1,1,4)  2.31645467E-05                      1_GWF-(1,2,2)
        302          3         81       1.1116167                      1_GWF-(1,1,4)  2.61216058E-05                      1_GWF-(1,2,2)
        303          3         82      -7.1657906                      1_GWF-(1,1,4) -1.63996752E-06                      1_GWF-(1,2,2)
        304          3         83       1.9437900                      1_GWF-(1,1,4)  9.59531262E-06                      1_GWF-(1,2,7)
        305          3         84      -2.5363151                      1_GWF-(1,1,4) -4.76382303E-06                      1_GWF-(1,2,2)
        306          3         85      0.24222805                      1_GWF-(1,1,4) -3.27693640E-06                      1_GWF-(1,2,2)
        307          3         86 -4.74837893E-02                      1_GWF-(1,1,4) -3.45250492E-06                      1_GWF-(1,2,2)
        308          3         87     -0.83819428                      1_GWF-(1,1,4) -6.45936016E-06                      1_GWF-(1,2,2)
        309          3         88      -31.687515                      1_GWF-(1,1,4) -1.36404156E-04                      1_GWF-(1,2,2)
        310          3         89       89.750802                      1_GWF-(1,1,4)  2.30591478E-04                      1_GWF-(1,2,2)
        311          3         90      -59.883562                      1_GWF-(1,1,4) -1.60215255E-05                      1_GWF-(1,2,2)
        312          3         91       6.2615003                      1_GWF-(1,1,4)  7.54163301E-06                      1_GWF-(1,2,7)
        313          3         92       1.8859420                      1_GWF-(1,1,4)  1.64461036E-05                      1_GWF-(1,2,2)
        314          3         93      -1.4639624                      1_GWF-(1,1,4)  1.15826622E-05                      1_GWF-(1,2,2)
        315          3         94      -3.1990393                      1_GWF-(1,1,4) -4.86874414E-07                      1_GWF-(1,2,2)
        316          3         95      0.10176962                      1_GWF-(1,1,4) -3.77470823E-08                      1_GWF-(1,2,2)
        317          3         96  1.96368777E-02                      1_GWF-(1,1,4)  5.10773114E-08                      1_GWF-(1,2,2)
        318          3         97  1.97029691E-03                      1_GWF-(1,1,4)  6.51105907E-08                      1_GWF-(1,2,2)
        319          3         98 -9.15214966E-03                      1_GWF-(1,1,4)  3.55343203E-08                      1_GWF-(1,2,2)
        320          3         99  1.96681109E-04                      1_GWF-(1,1,4)  3.76418451E-08                      1_GWF-(1,2,2)
        321          3        100 -1.89919304E-02                      1_GWF-(1,1,4) -9.42984300E-09                      1_GWF-(1,2,2)
        322          3        101  3.20973617E-03                      1_GWF-(1,1,4) -2.87450471E-09                      1_GWF-(1,2,8)
        323          3        102 -4.51335569E-04                      1_GWF-(1,1,4) -3.52881518E-09                      1_GWF-(1,2,8)
        324          3        103  1.07466022E-03                      1_GWF-(1,1,4)  2.74764644E-09                    1_GWF-(1,34,79)
        325          3        104 -9.25697506E-07                      1_GWF-(1,1,4)  2.71961715E-09                    1_GWF-(1,34,79)
        326          3        105  1.48976438E-04                      1_GWF-(1,1,4)  2.79491031E-09                    1_GWF-(1,34,79)
        327          3        106 -3.82993721E-03                      1_GWF-(1,1,4) -1.13730486E-08                      1_GWF-(1,2,2)
        328          3        107  4.74177282E-03                      1_GWF-(1,1,4)  3.45546867E-09                      1_GWF-(1,2,2)
        329          3        108 -1.84323412E-06                      1_GWF-(1,1,4)  3.41058848E-09                      1_GWF-(1,2,2)
        330          3        109  2.54490834E-05                      1_GWF-(1,1,4)  3.44485636E-09                      1_GWF-(1,2,2)
        331          3        110 -1.42742234E-04                      1_GWF-(1,1,4)  3.23553848E-09                    1_GWF-(1,34,79)
        332          3        111  3.47474630E-04                      1_GWF-(1,1,4)  3.89427908E-09                      1_GWF-(1,2,2)
        333          3        112  7.47711934E-05                      1_GWF-(1,1,4)  4.02783792E-09                      1_GWF-(1,2,2)
        334          3        113  1.22846170E-05                      1_GWF-(1,1,4)  4.01878085E-09                      1_GWF-(1,2,2)
        335          3        114  1.52514290E-06                      1_GWF-(1,1,4)  3.99253629E-09                      1_GWF-(1,2,2)
        336          3        115  3.66859346E-08                      1_GWF-(1,1,4)  3.97072061E-09                      1_GWF-(1,2,2)
        337          3        116  1.15022820E-08                      1_GWF-(1,1,4)  3.95457516E-09                      1_GWF-(1,2,2)
        338          3        117 -1.51345621E-08                      1_GWF-(1,1,4)  3.94156884E-09                      1_GWF-(1,2,2)
        339          3        118  1.98260859E-08                      1_GWF-(1,1,4)  3.93112892E-09                      1_GWF-(1,2,2)
        340          3        119 -3.14023018E-08                      1_GWF-(1,1,4)  3.92179388E-09                      1_GWF-(1,2,2)
        341          3        120  5.87546234E-08                      1_GWF-(1,1,4)  3.91458363E-09                      1_GWF-(1,2,2)
        342          3        121 -1.29106927E-07                      1_GWF-(1,1,4)  3.90646277E-09                      1_GWF-(1,2,2)
        343          3        122  3.23160422E-07                      1_GWF-(1,1,4)  3.90323831E-09                      1_GWF-(1,2,2)
        344          3        123 -9.33354771E-07                      1_GWF-(1,1,4)  3.89022610E-09                      1_GWF-(1,2,2)
        345          3        124  2.81978717E-06                      1_GWF-(1,1,4)  3.90528506E-09                      1_GWF-(1,2,2)
        346          3        125  1.15125801E-05                      1_GWF-(1,1,4)  3.94920482E-09                      1_GWF-(1,2,2)
        347          3        126 -2.91425868E-05                      1_GWF-(1,1,4)  3.80958857E-09                      1_GWF-(1,2,2)
        348          3        127 -2.31181683E-05                      1_GWF-(1,1,4)  3.67574543E-09                      1_GWF-(1,2,2)
        349          3        128  6.82855269E-05                      1_GWF-(1,1,4)  4.05073401E-09                      1_GWF-(1,2,2)
        350          3        129 -2.16756062E-04                      1_GWF-(1,1,4)  2.84942249E-09                      1_GWF-(1,2,2)
        351          3        130  9.85800869E-04                      1_GWF-(1,1,4)  7.97857872E-09                      1_GWF-(1,2,2)
        352          3        131 -5.79980794E-04                      1_GWF-(1,1,4)  4.87259347E-09                      1_GWF-(1,2,2)
        353          3        132 -2.05012091E-08                      1_GWF-(1,1,4)  4.83456510E-09                      1_GWF-(1,2,2)
        354          3        133 -2.33257979E-07                      1_GWF-(1,1,4)  4.80678776E-09                      1_GWF-(1,2,2)
        355          3        134  4.40106727E-07                      1_GWF-(1,1,4)  4.78921993E-09                      1_GWF-(1,2,2)
        356          3        135 -9.40232933E-07                      1_GWF-(1,1,4)  4.76891766E-09                      1_GWF-(1,2,2)
        357          3        136  2.37250657E-06                      1_GWF-(1,1,4)  4.76510372E-09                      1_GWF-(1,2,2)
        358          3        137 -7.29137775E-06                      1_GWF-(1,1,4)  4.72815454E-09                      1_GWF-(1,2,2)
        359          3        138  2.39693730E-05                      1_GWF-(1,1,4)  4.79575261E-09                      1_GWF-(1,2,2)
        360          3        139 -1.06465019E-04                      1_GWF-(1,1,4)  4.46340806E-09                      1_GWF-(1,2,2)
        361          3        140  3.73250315E-04                      1_GWF-(1,1,4)  5.55955203E-09                      1_GWF-(1,2,2)
        362          3        141 -9.97991857E-04                      1_GWF-(1,1,4)  2.63022303E-09                      1_GWF-(1,2,2)
        363          3        142 -1.08901738E-03                      1_GWF-(1,1,4) -1.00761485E-09                      1_GWF-(1,2,8)
        364          3        143 -1.33412357E-04                      1_GWF-(1,1,4) -1.13617471E-09                      1_GWF-(1,2,7)
        365          3        144 -1.06630643E-05                      1_GWF-(1,1,4) -1.14706933E-09                      1_GWF-(1,2,7)
        366          3        145  4.79922028E-05                      1_GWF-(1,1,4) -1.09742543E-09                      1_GWF-(1,2,7)
        367          3        146 -2.43519865E-04                      1_GWF-(1,1,4) -1.56843276E-09                      1_GWF-(1,2,2)
        368          3        147  9.19745754E-04                      1_GWF-(1,1,4)  1.31288999E-09                    1_GWF-(1,34,79)
        369          3        148  8.71767135E-04                      1_GWF-(1,1,4)  3.62374436E-09                      1_GWF-(1,2,2)
        370          3        149 -1.67967673E-04                      1_GWF-(1,1,4)  3.11687754E-09                      1_GWF-(1,2,2)
        371          3        150 -4.98696536E-05                      1_GWF-(1,1,4)  2.95209952E-09                      1_GWF-(1,2,2)
        372          3        151 -2.47209317E-05                      1_GWF-(1,1,4)  2.85838636E-09                      1_GWF-(1,2,2)
        373          3        152 -1.38560204E-05                      1_GWF-(1,1,4)  2.79468629E-09                      1_GWF-(1,2,2)
        374          3        153 -7.34741046E-06                      1_GWF-(1,1,4)  2.75012326E-09                      1_GWF-(1,2,2)
        375          3        154 -3.04736161E-06                      1_GWF-(1,1,4)  2.72093289E-09                      1_GWF-(1,2,2)
        376          3        155 -8.07385226E-07                      1_GWF-(1,1,4)  2.70261277E-09                      1_GWF-(1,2,2)
        377          3        156 -1.01007554E-07                      1_GWF-(1,1,4)  2.69005231E-09                      1_GWF-(1,2,2)
        378          3        157 -2.07938881E-09                      1_GWF-(1,1,4)  2.68014519E-09                      1_GWF-(1,2,2)
        379          3        158 -1.05177024E-09                     1_GWF-(1,80,1)  2.67175441E-09                      1_GWF-(1,2,2)
        380          3        159 -9.25172432E-10                     1_GWF-(1,80,1)  2.66443813E-09                      1_GWF-(1,2,2)
        381          4          1       1224.5960                     1_GWF-(1,11,3)       6947.0582                      1_GWF-(1,2,1)
        382          4          2       1163.5332                     1_GWF-(1,2,21)       2359.0296                      1_GWF-(1,3,3)
        383          4          3       206.73559                     1_GWF-(1,3,21)       975.73368                      1_GWF-(1,2,3)
        384          4          4       204.65620                    1_GWF-(1,34,17)       985.83259                      1_GWF-(1,2,1)
        385          4          5       306.75472                    1_GWF-(1,34,17)       483.19452                      1_GWF-(1,2,1)
        386          4          6       548.59642                    1_GWF-(1,34,17)       368.68237                      1_GWF-(1,2,1)
        387          4          7       582.21734                    1_GWF-(1,34,17)      -199.61806                    1_GWF-(1,23,18)
        388          4          8       607.03332                    1_GWF-(1,34,17)      -182.47762                    1_GWF-(1,24,18)
        389          4          9       617.40868                    1_GWF-(1,34,17)      -164.74578                    1_GWF-(1,26,18)
        390          4         10       987.32710                    1_GWF-(1,34,17)      -138.13709                    1_GWF-(1,26,18)
        391          4         11       1086.6955                    1_GWF-(1,34,17)      -113.50327                    1_GWF-(1,29,18)
        392          4         12       1634.7673                    1_GWF-(1,34,17)      -74.953204                    1_GWF-(1,29,18)
        393          4         13       1292.6630                    1_GWF-(1,34,17)      -39.674007                    1_GWF-(1,29,18)
        394          4         14       1538.7902                    1_GWF-(1,34,17)       26.294084                    1_GWF-(1,20,18)
        395          4         15      -22.471747                    1_GWF-(1,29,15)       22.290371                     1_GWF-(1,2,17)
        396          4         16       362.66200                    1_GWF-(1,34,17)       26.603464                    1_GWF-(1,24,18)
        397          4         17      -257.38297                    1_GWF-(1,34,17)       30.741523                     1_GWF-(1,3,16)
        398          4         18      -38.431891                    1_GWF-(1,30,49)       24.666260                    1_GWF-(1,24,18)
        399          4         19      -113.66272                    1_GWF-(1,34,17)       24.825089                    1_GWF-(1,24,18)
        400          4         20      -362.59337                    1_GWF-(1,34,17)       27.289583                    1_GWF-(1,20,18)
        401          4         21       45.271816                    1_GWF-(1,30,49)      -24.549850                    1_GWF-(1,33,47)
        402          4         22       2011.2336                    1_GWF-(1,34,17)       80.799537                    1_GWF-(1,31,48)
        403          4         23      -2888.2252                    1_GWF-(1,34,17)       19.888475                    1_GWF-(1,24,18)
        404          4         24      -1647.4590                    1_GWF-(1,34,17)       16.535460                    1_GWF-(1,22,18)
        405          4         25      -16.903686                    1_GWF-(1,27,49)       15.761206                    1_GWF-(1,22,18)
        406          4         26      -2496.7080                    1_GWF-(1,34,17)       8.4424567                    1_GWF-(1,22,18)
        407          4         27      -1541.3149                    1_GWF-(1,34,17)       3.6981916                    1_GWF-(1,22,18)
        408          4         28      -1121.9012                    1_GWF-(1,34,17)      0.30605031                    1_GWF-(1,21,18)
        409          4         29       7.5663899                    1_GWF-(1,34,17)      0.34869195                    1_GWF-(1,31,48)
        410          4         30      -71.346103                    1_GWF-(1,34,17)     -0.20739527                    1_GWF-(1,51,47)
        411          4         31      -7.7128948                    1_GWF-(1,34,17)     -0.20520112                    1_GWF-(1,55,53)
        412          4         32      -8.1380658                    1_GWF-(1,34,17)     -0.20735399                    1_GWF-(1,56,53)
        413          4         33      0.47980421                    1_GWF-(1,61,53)     -0.20620718                    1_GWF-(1,56,53)
        414          4         34      -1.0723197                    1_GWF-(1,34,17)     -0.20424260                    1_GWF-(1,56,53)
        415          4         35  5.55338944E-02                    1_GWF-(1,61,53)     -0.20388858                    1_GWF-(1,56,53)
        416          4         36       17.609155                    1_GWF-(1,61,53)      0.48555574                     1_GWF-(1,2,17)
        417          4         37      0.64595733                    1_GWF-(1,31,48)     -0.22498766                    1_GWF-(1,35,47)
        418          4         38      0.33495598                    1_GWF-(1,29,49)     -0.19264660                    1_GWF-(1,37,52)
        419          4         39      0.72000676                    1_GWF-(1,32,47)     -0.20527938                    1_GWF-(1,31,48)
        420          4         40      -3.8847438                    1_GWF-(1,32,47)     -0.26343374                    1_GWF-(1,36,51)
        421          4         41       15.903308                    1_GWF-(1,31,48)     -0.28664581                    1_GWF-(1,57,53)
        422          4         42      0.45570774                    1_GWF-(1,29,49)     -0.28027863                    1_GWF-(1,57,53)
        423          4         43       7.8341251                    1_GWF-(1,61,53)      0.52228125                     1_GWF-(1,2,17)
        424          4         44       2.1970086                    1_GWF-(1,32,47)     -0.18243517                    1_GWF-(1,57,53)
        425          4         45       4.9786540                    1_GWF-(1,61,53)      0.21661225                     1_GWF-(1,2,17)
        426          4         46      -5.1059930                    1_GWF-(1,61,53)      0.39705796                    1_GWF-(1,33,47)
        427          4         47       30.585116                    1_GWF-(1,61,53) -8.60312447E-02                    1_GWF-(1,31,48)
        428          4         48       6.7786458                    1_GWF-(1,61,53)  2.37612741E-02                    1_GWF-(1,57,53)
        429          4         49      -6.9431750                    1_GWF-(1,61,53)  9.97922966E-03                    1_GWF-(1,33,47)
        430          4         50       1.0350585                    1_GWF-(1,61,53) -2.88158560E-03                    1_GWF-(1,57,53)
        431          4         51 -3.21343108E-03                    1_GWF-(1,30,49) -2.78466312E-03                    1_GWF-(1,57,53)
        432          4         52      0.41985815                    1_GWF-(1,61,53) -8.73305965E-04                    1_GWF-(1,57,53)
        433          4         53  3.52542548E-02                    1_GWF-(1,61,53)  7.38561178E-04                    1_GWF-(1,22,19)
        434          4         54      0.11440984                    1_GWF-(1,61,53)  1.13407020E-04                    1_GWF-(1,57,79)
        435          4         55  1.42877356E-02                    1_GWF-(1,61,53) -9.53664900E-05                    1_GWF-(1,31,48)
        436          4         56 -3.12555928E-02                    1_GWF-(1,61,53)  1.14987018E-04                    1_GWF-(1,33,47)
        437          4         57  4.99559206E-03                    1_GWF-(1,61,53)  9.85081915E-05                    1_GWF-(1,57,79)
        438          4         58  9.76829608E-03                    1_GWF-(1,61,53)  8.42678606E-05                      1_GWF-(1,3,2)
        439          4         59  3.84650761E-04                    1_GWF-(1,61,53)  5.32557823E-05                    1_GWF-(1,57,79)
        440          4         60 -3.20679880E-04                    1_GWF-(1,63,79) -4.30762310E-05                    1_GWF-(1,31,48)
        441          4         61 -7.51896006E-05                    1_GWF-(1,28,49)  1.04586008E-05                    1_GWF-(1,31,48)
        442          4         62 -8.24044788E-06                    1_GWF-(1,31,48)  5.24395540E-06                    1_GWF-(1,57,79)
        443          4         63 -1.82453152E-05                    1_GWF-(1,31,48)  2.95091792E-06                    1_GWF-(1,57,79)
        444          4         64  8.28511524E-06                    1_GWF-(1,31,48)  4.12980180E-06                    1_GWF-(1,57,79)
        445          4         65 -2.68081768E-05                    1_GWF-(1,63,79) -9.11673724E-07                    1_GWF-(1,33,47)
        446          4         66  9.24305051E-06                    1_GWF-(1,61,53) -2.32876918E-06                    1_GWF-(1,31,48)
        447          4         67 -1.50259069E-05                    1_GWF-(1,61,53) -6.16739889E-08                    1_GWF-(1,37,79)
[...]
       6047         82          3 -1.74615889E-04                    1_GWF-(1,62,55)  2.79895756E-05                    1_GWF-(1,63,53)
       6048         82          4 -3.87923879E-05                    1_GWF-(1,61,56)  2.88525743E-05                    1_GWF-(1,62,54)
       6049         82          5 -5.65157158E-05                    1_GWF-(1,62,55)  6.88346701E-06                    1_GWF-(1,61,54)
       6050         82          6 -8.98100895E-06                    1_GWF-(1,62,55)  1.37618396E-06                    1_GWF-(1,60,52)
       6051         82          7 -3.23389037E-06                    1_GWF-(1,63,54) -1.06966332E-06                    1_GWF-(1,63,53)
       6052         82          8 -3.78268205E-06                    1_GWF-(1,62,55)  5.13361589E-07                    1_GWF-(1,55,49)
       6053         82          9 -5.11321321E-06                    1_GWF-(1,64,53)  4.28369933E-07                    1_GWF-(1,50,48)
       6054         82         10  2.10815128E-06                    1_GWF-(1,64,53) -2.28421160E-07                    1_GWF-(1,39,49)
       6055         82         11  1.07208453E-06                    1_GWF-(1,29,50) -1.70354636E-07                    1_GWF-(1,37,49)
       6056         82         12 -8.80685720E-08                    1_GWF-(1,51,69) -1.62084928E-07                    1_GWF-(1,37,49)
       6057         82         13  9.34015768E-07                    1_GWF-(1,30,48) -1.00159681E-07                    1_GWF-(1,39,49)
       6058         82         14  5.67095487E-07                    1_GWF-(1,29,50) -7.55156672E-08                    1_GWF-(1,45,50)
       6059         82         15 -1.43938850E-07                    1_GWF-(1,29,50) -6.92652462E-08                    1_GWF-(1,41,50)
       6060         82         16  1.24526084E-07                    1_GWF-(1,29,51) -5.86151227E-08                    1_GWF-(1,40,50)
       6061         82         17 -1.20798154E-08                    1_GWF-(1,51,69) -5.83851014E-08                    1_GWF-(1,40,50)
       6062         82         18  1.70639596E-08                    1_GWF-(1,29,50) -5.78446673E-08                    1_GWF-(1,40,50)
       6063         82         19 -1.14049400E-07                    1_GWF-(1,32,51) -5.82658241E-08                    1_GWF-(1,40,50)
       6064         82         20 -9.66873331E-07                    1_GWF-(1,31,46) -6.34478600E-08                    1_GWF-(1,40,50)
       6065         82         21  6.87917147E-06                    1_GWF-(1,31,46) -9.68959360E-08                    1_GWF-(1,56,79)
       6066         82         22  2.02720273E-06                    1_GWF-(1,31,51) -1.13763543E-07                    1_GWF-(1,56,58)
       6067         82         23 -3.87048812E-07                    1_GWF-(1,57,59) -6.43811752E-08                    1_GWF-(1,55,79)
       6068         82         24  4.36786608E-06                    1_GWF-(1,32,47) -8.61939444E-08                    1_GWF-(1,56,79)
       6069         82         25 -1.47518630E-05                    1_GWF-(1,32,47) -7.20455229E-08                    1_GWF-(1,42,49)
       6070         82         26  1.35561261E-05                    1_GWF-(1,32,47) -4.51485106E-08                    1_GWF-(1,56,79)
       6071         82         27  6.31068041E-08                    1_GWF-(1,66,79) -3.68229637E-08                    1_GWF-(1,56,79)
       6072         82         28  4.32661373E-08                    1_GWF-(1,66,79) -3.18215140E-08                    1_GWF-(1,56,79)
       6073         82         29  4.65008362E-08                    1_GWF-(1,66,79) -2.60601016E-08                    1_GWF-(1,56,79)
       6074         82         30  1.54373493E-08                    1_GWF-(1,66,79) -2.41184859E-08                    1_GWF-(1,56,79)
       6075         82         31  1.29599117E-08                    1_GWF-(1,66,79) -2.24823842E-08                    1_GWF-(1,56,79)
       6076         82         32  2.31561694E-08                    1_GWF-(1,66,79) -1.95577362E-08                    1_GWF-(1,56,79)
       6077         82         33 -2.08787774E-07                    1_GWF-(1,66,79) -4.59224500E-08                    1_GWF-(1,56,79)
       6078         82         34  2.74037132E-07                    1_GWF-(1,66,79) -1.13236733E-08                    1_GWF-(1,56,79)
       6079         82         35  1.94162997E-07                    1_GWF-(1,66,79)  1.31767814E-08                    1_GWF-(1,56,79)
       6080         82         36 -1.30673995E-07                    1_GWF-(1,66,79) -3.31374204E-09                    1_GWF-(1,56,79)
       6081         82         37 -2.33822050E-09                    1_GWF-(1,66,79) -3.60893513E-09                    1_GWF-(1,56,79)
       6082         82         38 -6.73987298E-10                    1_GWF-(1,66,79) -3.69415475E-09                    1_GWF-(1,56,79)
       6083         83          1 -5.01647109E-02                    1_GWF-(1,70,51)  3.16078387E-04                    1_GWF-(1,63,54)
       6084         83          2  2.03478242E-04                    1_GWF-(1,64,53)  2.59096484E-04                    1_GWF-(1,64,52)
       6085         83          3 -6.76231066E-04                    1_GWF-(1,64,53)  7.16369595E-06                    1_GWF-(1,60,51)
       6086         83          4 -2.63292731E-05                    1_GWF-(1,64,53)  3.01659887E-06                    1_GWF-(1,61,55)
       6087         83          5 -3.68339563E-06                    1_GWF-(1,61,56)  2.83563333E-06                    1_GWF-(1,62,54)
       6088         83          6 -7.38049953E-06                    1_GWF-(1,64,51)  1.01276867E-06                    1_GWF-(1,61,55)
       6089         83          7  4.86071354E-06                    1_GWF-(1,64,51)  1.49050251E-06                    1_GWF-(1,58,50)
       6090         83          8 -8.77567607E-06                    1_GWF-(1,64,51)  3.16931474E-07                    1_GWF-(1,60,51)
       6091         83          9 -1.11950558E-06                    1_GWF-(1,64,52) -2.00085297E-07                    1_GWF-(1,35,50)
       6092         83         10 -6.92082178E-07                    1_GWF-(1,64,53) -1.50808817E-07                    1_GWF-(1,34,49)
       6093         83         11 -6.00372365E-07                    1_GWF-(1,64,53) -9.67795316E-08                    1_GWF-(1,34,49)
       6094         83         12  6.72615162E-07                    1_GWF-(1,29,50)  5.98173620E-08                    1_GWF-(1,51,50)
       6095         83         13  1.10574169E-07                    1_GWF-(1,29,48)  5.81514303E-08                    1_GWF-(1,60,56)
       6096         83         14 -2.49750172E-07                    1_GWF-(1,62,55)  1.90697509E-08                    1_GWF-(1,54,50)
       6097         83         15 -1.36112700E-07                    1_GWF-(1,64,53)  1.62672272E-08                    1_GWF-(1,39,50)
       6098         83         16  1.08821824E-08                    1_GWF-(1,60,57)  1.52155442E-08                    1_GWF-(1,40,50)
       6099         83         17 -7.73819038E-08                    1_GWF-(1,62,53)  1.67505719E-08                    1_GWF-(1,39,50)
       6100         83         18 -3.84534000E-08                    1_GWF-(1,62,53)  1.63385358E-08                    1_GWF-(1,39,49)
       6101         83         19 -6.21031879E-09                    1_GWF-(1,29,50)  1.63135772E-08                    1_GWF-(1,39,49)
       6102         83         20 -1.78682797E-07                    1_GWF-(1,33,54)  1.50928483E-08                    1_GWF-(1,39,49)
       6103         83         21 -6.70659911E-07                    1_GWF-(1,32,52)  1.12533613E-08                    1_GWF-(1,35,49)
       6104         83         22  2.25619524E-07                    1_GWF-(1,34,54)  1.25031595E-08                    1_GWF-(1,38,49)
       6105         83         23  1.95689659E-06                    1_GWF-(1,31,51)  2.41851165E-08                    1_GWF-(1,39,49)
       6106         83         24 -3.32484996E-06                    1_GWF-(1,31,46)  1.21767706E-08                    1_GWF-(1,37,79)
       6107         83         25 -7.44908536E-07                    1_GWF-(1,31,46) -1.46643732E-08                    1_GWF-(1,57,79)
       6108         83         26 -1.37897077E-08                    1_GWF-(1,31,51) -1.36556643E-08                    1_GWF-(1,57,79)
       6109         83         27 -3.92049074E-09                    1_GWF-(1,29,80) -1.30124583E-08                    1_GWF-(1,57,79)
       6110         83         28 -3.01795830E-09                    1_GWF-(1,29,80) -1.25133846E-08                    1_GWF-(1,57,79)
       6111         83         29 -2.02781423E-09                    1_GWF-(1,29,80) -1.21760718E-08                    1_GWF-(1,57,79)
       6112         83         30 -1.63096150E-09                    1_GWF-(1,29,80) -1.19043261E-08                    1_GWF-(1,57,79)
       6113         83         31 -9.05998139E-10                    1_GWF-(1,29,80) -1.17521322E-08                    1_GWF-(1,57,79)
       6114         84          1 -4.91031255E-03                    1_GWF-(1,65,52)  1.22909453E-04                    1_GWF-(1,63,53)
       6115         84          2  3.93763105E-04                    1_GWF-(1,65,51) -8.70884262E-06                    1_GWF-(1,63,50)
       6116         84          3  1.47878679E-05                    1_GWF-(1,64,48)  2.33386641E-06                    1_GWF-(1,61,55)
       6117         84          4  4.81343244E-06                    1_GWF-(1,64,49) -8.12444612E-07                    1_GWF-(1,59,49)
       6118         84          5  2.05404023E-06                    1_GWF-(1,63,47) -4.96144803E-07                    1_GWF-(1,62,54)
       6119         84          6  1.18310226E-06                    1_GWF-(1,64,52) -1.89261569E-07                    1_GWF-(1,58,53)
       6120         84          7  5.67576403E-07                    1_GWF-(1,64,52) -1.33710892E-07                    1_GWF-(1,55,53)
       6121         84          8  2.71121458E-07                    1_GWF-(1,61,56) -1.10806082E-07                    1_GWF-(1,60,56)
       6122         84          9  3.59570174E-07                    1_GWF-(1,60,57) -7.34107647E-08                    1_GWF-(1,61,55)
       6123         84         10 -6.96174095E-08                    1_GWF-(1,65,51) -5.79875973E-08                    1_GWF-(1,52,53)
       6124         84         11  2.37221992E-07                    1_GWF-(1,57,59) -4.61849875E-08                    1_GWF-(1,60,56)
       6125         84         12  1.12166119E-07                    1_GWF-(1,60,57) -1.67294725E-08                    1_GWF-(1,50,51)
       6126         84         13 -7.09339865E-08                    1_GWF-(1,29,50) -1.29123744E-08                    1_GWF-(1,48,50)
       6127         84         14 -6.14932919E-08                    1_GWF-(1,29,50) -9.95031124E-09                    1_GWF-(1,47,50)
       6128         84         15 -4.61108738E-08                    1_GWF-(1,29,50) -8.70664621E-09                    1_GWF-(1,43,50)
       6129         84         16  4.50732857E-09                    1_GWF-(1,53,44) -8.66687464E-09                    1_GWF-(1,42,50)
       6130         84         17 -8.70086389E-09                    1_GWF-(1,55,44) -8.81708408E-09                    1_GWF-(1,44,50)
       6131         84         18 -1.10734564E-08                    1_GWF-(1,60,45) -9.21170993E-09                    1_GWF-(1,45,50)
       6132         84         19  2.69784273E-08                    1_GWF-(1,59,45) -8.90412659E-09                    1_GWF-(1,40,50)
       6133         84         20  2.46037520E-08                    1_GWF-(1,57,44) -1.08828790E-08                    1_GWF-(1,37,50)
       6134         84         21  2.09658122E-08                    1_GWF-(1,57,44) -1.26626154E-08                    1_GWF-(1,37,50)
       6135         84         22  5.13005872E-09                    1_GWF-(1,29,51) -1.21243546E-08                    1_GWF-(1,37,50)
       6136         84         23  3.84140897E-09                    1_GWF-(1,29,51) -1.18150544E-08                    1_GWF-(1,37,50)
       6137         84         24  1.75374719E-09                    1_GWF-(1,29,51) -1.16844671E-08                    1_GWF-(1,37,50)
       6138         84         25  1.43010412E-09                    1_GWF-(1,29,50) -1.16275988E-08                    1_GWF-(1,37,50)
       6139         84         26 -1.52410907E-09                    1_GWF-(1,59,45) -1.15314693E-08                    1_GWF-(1,37,50)
       6140         84         27  4.52293500E-09                    1_GWF-(1,32,53) -1.15290645E-08                    1_GWF-(1,37,50)
       6141         84         28  1.96635059E-08                    1_GWF-(1,30,51) -1.13542989E-08                    1_GWF-(1,37,50)
       6142         84         29 -5.35943699E-08                    1_GWF-(1,31,51) -1.15905890E-08                    1_GWF-(1,37,50)
       6143         84         30 -1.40990017E-07                    1_GWF-(1,32,52) -1.19635181E-08                    1_GWF-(1,37,50)
       6144         84         31  2.88008750E-07                    1_GWF-(1,31,51) -1.09071393E-08                    1_GWF-(1,37,50)
       6145         84         32  9.48962650E-08                    1_GWF-(1,31,51) -1.03494726E-08                    1_GWF-(1,37,49)
       6146         84         33  1.57084135E-07                    1_GWF-(1,31,51) -9.27615114E-09                    1_GWF-(1,37,49)
       6147         84         34 -5.92248320E-07                    1_GWF-(1,31,51) -1.31341812E-08                    1_GWF-(1,37,50)
       6148         84         35  8.73739677E-07                    1_GWF-(1,31,51) -7.20073525E-09                    1_GWF-(1,37,49)
       6149         84         36  1.25874075E-07                    1_GWF-(1,31,50) -7.66942162E-09                    1_GWF-(1,40,79)
       6150         84         37 -1.79802588E-07                    1_GWF-(1,31,50) -7.48825702E-09                    1_GWF-(1,37,49)
       6151         84         38  3.10346974E-07                    1_GWF-(1,31,50) -8.47218992E-09                    1_GWF-(1,40,79)
       6152         84         39  2.51568328E-07                    1_GWF-(1,31,47) -1.00537557E-08                    1_GWF-(1,39,79)
       6153         84         40  5.43356107E-07                    1_GWF-(1,31,50) -1.31752072E-08                    1_GWF-(1,39,79)
       6154         84         41  4.98430042E-07                    1_GWF-(1,31,50) -1.54620908E-08                    1_GWF-(1,39,79)
       6155         84         42  1.74921305E-07                    1_GWF-(1,31,51) -1.60204015E-08                    1_GWF-(1,39,79)
       6156         84         43 -4.67323172E-07                    1_GWF-(1,31,50) -1.29964645E-08                    1_GWF-(1,39,79)
       6157         84         44 -2.87014275E-07                    1_GWF-(1,31,50) -1.08322898E-08                    1_GWF-(1,39,79)
       6158         84         45 -1.70596807E-07                    1_GWF-(1,31,50) -9.37582355E-09                    1_GWF-(1,39,79)
       6159         84         46 -3.45152131E-08                    1_GWF-(1,31,50) -8.94161111E-09                    1_GWF-(1,39,79)
       6160         84         47  8.14439662E-10                    1_GWF-(1,29,80) -8.82540813E-09                    1_GWF-(1,39,79)
       6161         85          1 -4.50321647E-04                    1_GWF-(1,70,50)  2.69925463E-06                    1_GWF-(1,63,53)
       6162         85          2  9.16864031E-06                    1_GWF-(1,65,51) -1.20318219E-07                    1_GWF-(1,63,50)
       6163         85          3  2.14423253E-07                    1_GWF-(1,64,49)  2.44050396E-08                    1_GWF-(1,61,55)
       6164         85          4  4.15143584E-08                    1_GWF-(1,64,49) -7.91361374E-09                    1_GWF-(1,60,49)
       6165         85          5  1.91522258E-08                    1_GWF-(1,64,49) -6.64952594E-09                    1_GWF-(1,39,79)
       6166         85          6  1.01813821E-08                    1_GWF-(1,63,47) -6.03968417E-09                    1_GWF-(1,39,79)
       6167         85          7  3.38624263E-09                    1_GWF-(1,63,54) -5.60961887E-09                    1_GWF-(1,39,79)
       6168         85          8  3.09305323E-09                    1_GWF-(1,29,80) -5.19475121E-09                    1_GWF-(1,39,79)
       6169         85          9  2.15150639E-09                    1_GWF-(1,29,80) -4.90693852E-09                    1_GWF-(1,39,79)
       6170         85         10  2.05309497E-09                    1_GWF-(1,29,80) -4.63250091E-09                    1_GWF-(1,39,79)
       6171         85         11  2.60657965E-09                    1_GWF-(1,29,80) -4.28384703E-09                    1_GWF-(1,39,79)
       6172         85         12  2.90545100E-09                    1_GWF-(1,29,80) -3.89471334E-09                    1_GWF-(1,39,79)
       6173         85         13  1.95351782E-09                    1_GWF-(1,29,80) -3.63250135E-09                    1_GWF-(1,39,79)
       6174         85         14  8.95731792E-10                    1_GWF-(1,29,80) -3.51176321E-09                    1_GWF-(1,39,79)
       6175         86          1 -1.95433318E-07                    1_GWF-(1,70,50)  5.07142282E-09                    1_GWF-(1,64,52)
       6176         86          2 -4.85462215E-09                    1_GWF-(1,64,52) -3.29245987E-09                    1_GWF-(1,38,79)
       6177         86          3 -3.38887851E-09                    1_GWF-(1,64,52) -5.33463961E-09                    1_GWF-(1,64,52)
       6178         86          4  8.17011273E-09                    1_GWF-(1,29,80) -5.65841321E-09                    1_GWF-(1,64,52)
       6179         86          5  1.10244043E-08                    1_GWF-(1,29,80)  3.15211444E-09                    1_GWF-(1,52,55)
       6180         86          6  2.45690326E-09                    1_GWF-(1,29,80)  3.10938939E-09                    1_GWF-(1,52,55)
       6181         86          7  1.27601974E-09                    1_GWF-(1,64,52)  2.83430974E-09                    1_GWF-(1,52,55)
       6182         86          8  9.64558549E-10                    1_GWF-(1,64,52)  2.57238832E-09                    1_GWF-(1,52,55)
       6183         87          1  2.61859532E-09                    1_GWF-(1,64,52)  1.74925703E-09                    1_GWF-(1,52,55)
       6184         87          2  6.20904422E-09                    1_GWF-(1,64,52) -1.16261990E-09                    1_GWF-(1,60,50)
       6185         87          3  1.96029369E-09                    1_GWF-(1,64,51)  1.16478589E-09                    1_GWF-(1,64,52)
       6186         87          4  1.64200346E-10                    1_GWF-(1,62,46)  1.06267630E-09                    1_GWF-(1,64,52)
       6187         88          1 -5.66074401E-10                    1_GWF-(1,65,51) -8.11257227E-10                    1_GWF-(1,52,55)
 --------------------------------------------------------------------------------------------------------------------------------------



 MEMORY MANAGER TOTAL STORAGE BY DATA TYPE, IN MEGABYTES
 -------------------------------
                    ALLOCATED   
 DATA TYPE           MEMORY     
 -------------------------------
 Character        8.56600000E-03
 Logical          4.80000000E-05
 Integer          4.2027400     
 Real             7.1171920     
 -------------------------------
 Total            11.328546     
 Virtual          0.0000000     
 -------------------------------


 
 Run end date and time (yyyy/mm/dd hh:mm:ss): 2025/04/10 15:05:28
 Elapsed run time:  2.013 Seconds
 Normal termination of simulation.
