 LISTING FILE: anisotropic_strong_mt.list
                         UNIT  16

 OPENING mt3d_link.ftl
 FILE TYPE:FTL   UNIT  10

 OPENING anisotropic_strong_mt.btn
 FILE TYPE:BTN   UNIT  31

 OPENING anisotropic_strong_mt.adv
 FILE TYPE:ADV   UNIT  32

 OPENING anisotropic_strong_mt.dsp
 FILE TYPE:DSP   UNIT  33

 OPENING anisotropic_strong_mt.ssm
 FILE TYPE:SSM   UNIT  34

 OPENING anisotropic_strong_mt.gcg
 FILE TYPE:GCG   UNIT  35

                              +++++++++++++++++++++++++++++++++++++++++++++++++++++++++++++++++++++++
                              +                                                                     +
                              +                              MT3D-USGS                              +
                              +             A Modular 3D Multi-Species Transport Model              +
                              +    For Simulation of Advection, Dispersion and Chemical Reactions   +
                              +                of Contaminants in Groundwater Systems               +
                              +                                                                     +
                              +++++++++++++++++++++++++++++++++++++++++++++++++++++++++++++++++++++++

  ----- 
 | M T | ## BTN for MT3DMS, generated by Flopy.                                          
 | 3 D | ##                                                                              
  ----- 
 THE TRANSPORT MODEL CONSISTS OF     1 LAYER(S)   20 ROW(S)   40 COLUMN(S)
 NUMBER OF STRESS PERIOD(S) FOR TRANSPORT SIMULATION =    2
 NUMBER OF ALL COMPONENTS INCLUDED IN SIMULATION =    1
 NUMBER OF MOBILE COMPONENTS INCLUDED IN SIMULATION =    1
 UNIT FOR TIME IS S   ;  UNIT FOR LENGTH IS CM  ;  UNIT FOR MASS IS KG  
 OPTIONAL PACKAGES INCLUDED IN CURRENT SIMULATION:
  o ADV   ON UNIT 32
  o DSP   ON UNIT 33
  o SSM   ON UNIT 34
  o GCG   ON UNIT 35


 BTN1 -- BASIC TRANSPORT PACKAGE, VERSION 1, MAY 2016, INPUT READ FROM UNIT 31

 BTN PACKAGE KEYWORD INPUT: 
 DRYCELL OPTION NOT SET
  DRY CELL BUDGET OMITTED FROM GLOBAL MASS BALANCE SUMMARY

 LAYER NUMBER  AQUIFER TYPE
 ------------  ------------
       1            0
                                       WIDTH ALONG ROWS (DELR)  =  0.2500000    
                                       WIDTH ALONG COLS (DELC)  =   1.000000    
                                       TOP ELEV. OF 1ST LAYER   =   0.000000    

                     CELL THICKNESS (DZ)      FOR LAYER  1 READ ON UNIT  31 USING FORMAT: "          (40E15.6) "
                     ------------------------------------------------------------------------------------------
                                       POROSITY                 =  0.3000000     FOR LAYER  1

                     CONCN. BOUNDARY ARRAY    FOR LAYER  1 READ ON UNIT  31 USING FORMAT: "            (40I10) "
                     ------------------------------------------------------------------------------------------

                     INITIAL CONC.: COMP.  01 FOR LAYER  1 READ ON UNIT  31 USING FORMAT: "          (40E15.6) "
                     ------------------------------------------------------------------------------------------

 VALUE INDICATING INACTIVE CONCENTRATION CELLS =   0.1000000E+31
 MINIMUM SATURATED THICKNESS [THKMIN] ALLOWED =  0.0100000 OF TOTAL CELL THICKNESS


 OUTPUT CONTROL OPTIONS
 ----------------------

 DO NOT PRINT CELL CONCENTRATION
 DO NOT PRINT PARTICLE NUMBER IN EACH CELL
 DO NOT PRINT RETARDATION FACTOR
 DO NOT PRINT DISPERSION COEFFICIENT
 SAVE DISSOLVED PHASE CONCENTRATIONS IN UNFORMATTED FILES [MT3Dnnn.UCN]
  FOR EACH SPECIES ON UNITS 201 AND ABOVE

 NUMBER OF TIMES AT WHICH SIMULATION RESULTS ARE SAVED =  100
 TOTAL ELAPSED TIMES AT WHICH SIMULATION RESULTS ARE SAVED: 
    0.0000       36.600       73.200       109.80       146.40       183.00       219.60       256.20    
    292.80       329.40       366.00       402.60       439.20       475.80       512.40       549.00    
    585.60       622.20       658.80       695.40       732.00       768.60       805.20       841.80    
    878.40       915.00       951.60       988.20       1024.8       1061.4       1098.0       1134.6    
    1171.2       1207.8       1244.4       1281.0       1317.6       1354.2       1390.8       1427.4    
    1464.0       1500.6       1537.2       1573.8       1610.4       1647.0       1683.6       1720.2    
    1756.8       1793.4       1830.0       1866.6       1903.2       1939.8       1976.4       2013.0    
    2049.6       2086.2       2122.8       2159.4       2196.0       2232.6       2269.2       2305.8    
    2342.4       2379.0       2415.6       2452.2       2488.8       2525.4       2562.0       2598.6    
    2635.2       2671.8       2708.4       2745.0       2781.6       2818.2       2854.8       2891.4    
    2928.0       2964.6       3001.2       3037.8       3074.4       3111.0       3147.6       3184.2    
    3220.8       3257.4       3294.0       3330.6       3367.2       3403.8       3440.4       3477.0    
    3513.6       3550.2       3586.8       3623.4    

 NUMBER OF OBSERVATION POINTS =    0

 SAVE ONE-LINE SUMMARY OF MASS BUDGETS IN FILES [MT3Dnnn.MAS]
  FOR EACH SPECIES ON UNITS 601 AND ABOVE, EVERY  1 TRANSPORT STEPS

 MAXIMUM LENGTH ALONG THE X (J) AXIS =   10.00000    
 MAXIMUM LENGTH ALONG THE Y (I) AXIS =   20.00000    
 MAXIMUM LENGTH ALONG THE Z (K) AXIS =  0.2500000    
 FMI1 -- FLOW MODEL INTERFACE PACKAGE, VERSION 1, MAY 2016, INPUT READ FROM UNIT 10
 FLOW MODEL IS STEADY-STATE
 FLOW MODEL CONTAINS CONSTANT-HEAD CELLS


 ADV1 -- ADVECTION PACKAGE, VERSION 1, MAY 2016, INPUT READ FROM UNIT 32
 ADVECTION IS SOLVED WITH THE ULTIMATE SCHEME
 COURANT NUMBER ALLOWED IN SOLVING THE ADVECTION TERM = 0.750    


 ADVECTION SOLUTION OPTIONS
 --------------------------

 ADVECTION IS SOLVED WITH THE ULTIMATE SCHEME
 COURANT NUMBER ALLOWED IN SOLVING THE ADVECTION TERM = 0.750    

 DSP1 -- DISPERSION PACKAGE, VERSION 1, MAY 2016, INPUT READ FROM UNIT 33


 DISPERSION INPUT PARAMETERS
 ---------------------------

                                       LONG. DISPERSIVITY (AL)  =  0.1000000E-01 FOR LAYER  1
                                       H. TRANS./LONG. DISP.    =  0.1000000    
                                       V. TRANS./LONG. DISP.    =  0.1000000E-01
                                       DIFFUSION COEFFICIENT    =  0.1000000E-08

 SSM1 -- SINK & SOURCE MIXING PACKAGE, VERSION 1, MAY 2016, INPUT READ FROM UNIT 34
 HEADER LINE OF THE SSM PACKAGE INPUT FILE:
  F F F F F F F F F F F F F F F F                                        
 MAJOR STRESS COMPONENTS PRESENT IN THE FLOW MODEL:
 MAXIMUM NUMBER OF POINT SINKS/SOURCES =      80

 GCG1 -- GENERALIZED CONJUGATE GRADIENT SOLVER PACKAGE, VERSION 1, OCTOBER 2010 INPUT READ FROM UNIT 35
 MAXIMUM OF    1 OUTER ITERATIONS
        AND   50 INNER ITERATIONS ALLOWED FOR CLOSURE
 THE PRECONDITIONING TYPE SELECTED IS MODIFIED INCOMPLETE CHOLESKY (MIC).
 DISPERSION CROSS TERMS LUMPED INTO RIGHT-HAND-SIDE



                                               SOLUTION BY THE GENERALIZED CONJUGATE GRADIENT METHOD
                                               -----------------------------------------------------
                                     MAXIMUM OUTER ITERATIONS ALLOWED FOR CLOSURE =        1
                                     MAXIMUM INNER ITERATIONS ALLOWED FOR CLOSURE =       50
                                                    PRECONDITIONING TYPE SELECTED =    3
                                                           ACCELERATION PARAMETER =     1.0000    
                                       CONCENTRATION CHANGE CRITERION FOR CLOSURE =    0.10000E-04
                                       GCG CONCENTRATION CHANGE PRINTOUT INTERVAL =      999


                                   ++++++++++++++++++++++++++++++++++++++++++++++++++++++++++++++
                                                       STRESS PERIOD NO.  001
                                   ++++++++++++++++++++++++++++++++++++++++++++++++++++++++++++++


 LENGTH OF CURRENT STRESS PERIOD =   180.0000    
 NUMBER OF TIME STEPS FOR CURRENT STRESS PERIOD =    1
 TIME STEP MULTIPLIER USED IN FLOW SOLUTION =   1.000000    

 ***Type of Transport Simulation is TRANSIENT

 USER-SPECIFIED TRANSPORT STEPSIZE =   0.000000    S   
 MAXIMUM NUMBER OF TRANSPORT STEPS ALLOWED  IN ONE FLOW TIME STEP =     50000
 MULTIPLIER FOR SUCCESSIVE TRANSPORT STEPS  [USED IN IMPLICIT SCHEMES] =     1.000
 MAXIMUM TRANSPORT STEP SIZE  [USED IN IMPLICIT SCHEMES] =   0.000000    S   

       NO    LAYER   ROW   COLUMN   CONCENTRATION       TYPE            COMPONENT
       1       1       1       1       1.000000         CONSTANT CONC.      1
       2       1       2       1       1.000000         CONSTANT CONC.      1
       3       1       3       1       1.000000         CONSTANT CONC.      1
       4       1       4       1       1.000000         CONSTANT CONC.      1
       5       1       5       1       1.000000         CONSTANT CONC.      1
       6       1       6       1       1.000000         CONSTANT CONC.      1
       7       1       7       1       1.000000         CONSTANT CONC.      1
       8       1       8       1       1.000000         CONSTANT CONC.      1
       9       1       9       1       1.000000         CONSTANT CONC.      1
      10       1      10       1       1.000000         CONSTANT CONC.      1
      11       1      11       1       1.000000         CONSTANT CONC.      1
      12       1      12       1       1.000000         CONSTANT CONC.      1
      13       1      13       1       1.000000         CONSTANT CONC.      1
      14       1      14       1       1.000000         CONSTANT CONC.      1
      15       1      15       1       1.000000         CONSTANT CONC.      1
      16       1      16       1       1.000000         CONSTANT CONC.      1
      17       1      17       1       1.000000         CONSTANT CONC.      1
      18       1      18       1       1.000000         CONSTANT CONC.      1
      19       1      19       1       1.000000         CONSTANT CONC.      1
      20       1      20       1       1.000000         CONSTANT CONC.      1


                                          ================================================
                                                         TIME STEP NO.  001
                                          ================================================

 FROM TIME =   0.0000     TO    180.00    


                    "THKSAT          " FLOW TERMS FOR TIME STEP  1, STRESS PERIOD  1 READ UNFORMATTED ON UNIT 10
                    --------------------------------------------------------------------------------------------

                    "QXX             " FLOW TERMS FOR TIME STEP  1, STRESS PERIOD  1 READ UNFORMATTED ON UNIT 10
                    --------------------------------------------------------------------------------------------

                    "QYY             " FLOW TERMS FOR TIME STEP  1, STRESS PERIOD  1 READ UNFORMATTED ON UNIT 10
                    --------------------------------------------------------------------------------------------

 MAXIMUM STEPSIZE DURING WHICH ANY PARTICLE CANNOT MOVE MORE THAN ONE CELL
 =  16.18    (WHEN MIN. R.F.=1)  AT K=   1, I=   3, J=  28

 MAXIMUM STEPSIZE WHICH MEETS STABILITY CRITERION OF THE ADVECTION TERM
 (FOR PURE FINITE-DIFFERENCE OPTION, MIXELM=0) 
 =  16.09    (WHEN MIN. R.F.=1)  AT K=   1, I=   3, J=  26

                    "CNH             " FLOW TERMS FOR TIME STEP  1, STRESS PERIOD  1 READ UNFORMATTED ON UNIT 10
                    --------------------------------------------------------------------------------------------


 TOTAL NUMBER OF POINT SOURCES/SINKS PRESENT IN THE FLOW MODEL =    60

 MAXIMUM STEPSIZE WHICH MEETS STABILITY CRITERION OF THE SINK & SOURCE TERM
 =  17.61    (WHEN MIN. R.F.=1)  AT K=   1, I=   3, J=   1

 MAXIMUM STEPSIZE WHICH MEETS STABILITY CRITERION OF THE DISPERSION TERM
 =  201.1    (WHEN MIN. R.F.=1)  AT K=   1, I=   3, J=  28



 >>>>>>>>>>>>>>>>>>>>>>>>>>>>>>>>>>>>>>>>>>>>>>>>>>>>>>>FOR COMPONENT NO. 01<<<<<<<<<<<<<<<<<<<<<<<<<<<<<<<<<<<<<<<<<<<<<<<<<<<<<<<


                                            -------------------------------------------
                                                      TRANSPORT STEP NO.    1
                                            -------------------------------------------

 TOTAL ELAPSED TIME SINCE BEGINNING OF SIMULATION =   0.000000    S   
 .....................................................................

                     CUMULATIVE MASS BUDGETS AT END OF TRANSPORT STEP    1, TIME STEP    1, STRESS PERIOD    1
                     -----------------------------------------------------------------------------------------

                                                             IN                           OUT
                                                      ----------------             ----------------
                               CONSTANT CONCENTRATION:    0.000000                    0.000000    
                                        CONSTANT HEAD:    0.000000                    0.000000    
                               MASS STOR (FLOW MODEL):    0.000000                    0.000000    
                                MASS STORAGE (SOLUTE):    0.000000                    0.000000    
                            ---------------------------------------------------------------------------
                                              [TOTAL]:    0.000000     KG             0.000000     KG  

                                                          NET (IN - OUT):    0.000000    
                                                   DISCREPANCY (PERCENT):    0.000000    
     1 CALLS TO GCG PACKAGE FOR TRANSPORT TIME STEP     2 IN FLOW TIME STEP     1 STRESS PERIOD     1
      2 TOTAL ITERATIONS
     1 CALLS TO GCG PACKAGE FOR TRANSPORT TIME STEP     3 IN FLOW TIME STEP     1 STRESS PERIOD     1
      2 TOTAL ITERATIONS
     1 CALLS TO GCG PACKAGE FOR TRANSPORT TIME STEP     4 IN FLOW TIME STEP     1 STRESS PERIOD     1
      2 TOTAL ITERATIONS
     1 CALLS TO GCG PACKAGE FOR TRANSPORT TIME STEP     5 IN FLOW TIME STEP     1 STRESS PERIOD     1
      2 TOTAL ITERATIONS



 >>>>>>>>>>>>>>>>>>>>>>>>>>>>>>>>>>>>>>>>>>>>>>>>>>>>>>>FOR COMPONENT NO. 01<<<<<<<<<<<<<<<<<<<<<<<<<<<<<<<<<<<<<<<<<<<<<<<<<<<<<<<


                                            -------------------------------------------
                                                      TRANSPORT STEP NO.    5
                                            -------------------------------------------

 TOTAL ELAPSED TIME SINCE BEGINNING OF SIMULATION =   36.60000    S   
 .....................................................................

                     CUMULATIVE MASS BUDGETS AT END OF TRANSPORT STEP    5, TIME STEP    1, STRESS PERIOD    1
                     -----------------------------------------------------------------------------------------

                                                             IN                           OUT
                                                      ----------------             ----------------
                               CONSTANT CONCENTRATION:   0.5831344                    0.000000    
                                        CONSTANT HEAD:    0.000000                    0.000000    
                               MASS STOR (FLOW MODEL):    0.000000                    0.000000    
                                MASS STORAGE (SOLUTE):   0.2889570E-06              -0.5831344    
                            ---------------------------------------------------------------------------
                                              [TOTAL]:   0.5831347     KG           -0.5831344     KG  

                                                          NET (IN - OUT):   0.2980232E-06
                                                   DISCREPANCY (PERCENT):   0.5110711E-04
     1 CALLS TO GCG PACKAGE FOR TRANSPORT TIME STEP     6 IN FLOW TIME STEP     1 STRESS PERIOD     1
      2 TOTAL ITERATIONS
     1 CALLS TO GCG PACKAGE FOR TRANSPORT TIME STEP     7 IN FLOW TIME STEP     1 STRESS PERIOD     1
      2 TOTAL ITERATIONS
     1 CALLS TO GCG PACKAGE FOR TRANSPORT TIME STEP     8 IN FLOW TIME STEP     1 STRESS PERIOD     1
      2 TOTAL ITERATIONS
     1 CALLS TO GCG PACKAGE FOR TRANSPORT TIME STEP     9 IN FLOW TIME STEP     1 STRESS PERIOD     1
      2 TOTAL ITERATIONS



 >>>>>>>>>>>>>>>>>>>>>>>>>>>>>>>>>>>>>>>>>>>>>>>>>>>>>>>FOR COMPONENT NO. 01<<<<<<<<<<<<<<<<<<<<<<<<<<<<<<<<<<<<<<<<<<<<<<<<<<<<<<<


                                            -------------------------------------------
                                                      TRANSPORT STEP NO.    9
                                            -------------------------------------------

 TOTAL ELAPSED TIME SINCE BEGINNING OF SIMULATION =   73.20000    S   
 .....................................................................

                     CUMULATIVE MASS BUDGETS AT END OF TRANSPORT STEP    9, TIME STEP    1, STRESS PERIOD    1
                     -----------------------------------------------------------------------------------------

                                                             IN                           OUT
                                                      ----------------             ----------------
                               CONSTANT CONCENTRATION:    1.161112                  -0.2497505E-07
                                        CONSTANT HEAD:    0.000000                    0.000000    
                               MASS STOR (FLOW MODEL):    0.000000                    0.000000    
                                MASS STORAGE (SOLUTE):   0.5678353E-05               -1.161117    
                            ---------------------------------------------------------------------------
                                              [TOTAL]:    1.161118     KG            -1.161117     KG  

                                                          NET (IN - OUT):   0.4768372E-06
                                                   DISCREPANCY (PERCENT):   0.4106709E-04
     1 CALLS TO GCG PACKAGE FOR TRANSPORT TIME STEP    10 IN FLOW TIME STEP     1 STRESS PERIOD     1
      2 TOTAL ITERATIONS
     1 CALLS TO GCG PACKAGE FOR TRANSPORT TIME STEP    11 IN FLOW TIME STEP     1 STRESS PERIOD     1
      2 TOTAL ITERATIONS
     1 CALLS TO GCG PACKAGE FOR TRANSPORT TIME STEP    12 IN FLOW TIME STEP     1 STRESS PERIOD     1
      2 TOTAL ITERATIONS
     1 CALLS TO GCG PACKAGE FOR TRANSPORT TIME STEP    13 IN FLOW TIME STEP     1 STRESS PERIOD     1
      2 TOTAL ITERATIONS



 >>>>>>>>>>>>>>>>>>>>>>>>>>>>>>>>>>>>>>>>>>>>>>>>>>>>>>>FOR COMPONENT NO. 01<<<<<<<<<<<<<<<<<<<<<<<<<<<<<<<<<<<<<<<<<<<<<<<<<<<<<<<


                                            -------------------------------------------
                                                      TRANSPORT STEP NO.   13
                                            -------------------------------------------

 TOTAL ELAPSED TIME SINCE BEGINNING OF SIMULATION =   109.8000    S   
 .....................................................................

                     CUMULATIVE MASS BUDGETS AT END OF TRANSPORT STEP   13, TIME STEP    1, STRESS PERIOD    1
                     -----------------------------------------------------------------------------------------

                                                             IN                           OUT
                                                      ----------------             ----------------
                               CONSTANT CONCENTRATION:    1.738877                  -0.8351883E-07
                                        CONSTANT HEAD:    0.000000                    0.000000    
                               MASS STOR (FLOW MODEL):    0.000000                    0.000000    
                                MASS STORAGE (SOLUTE):   0.1713966E-04               -1.738894    
                            ---------------------------------------------------------------------------
                                              [TOTAL]:    1.738894     KG            -1.738894     KG  

                                                          NET (IN - OUT):   0.4768372E-06
                                                   DISCREPANCY (PERCENT):   0.2742186E-04
     1 CALLS TO GCG PACKAGE FOR TRANSPORT TIME STEP    14 IN FLOW TIME STEP     1 STRESS PERIOD     1
      2 TOTAL ITERATIONS
     1 CALLS TO GCG PACKAGE FOR TRANSPORT TIME STEP    15 IN FLOW TIME STEP     1 STRESS PERIOD     1
      2 TOTAL ITERATIONS
     1 CALLS TO GCG PACKAGE FOR TRANSPORT TIME STEP    16 IN FLOW TIME STEP     1 STRESS PERIOD     1
      2 TOTAL ITERATIONS
     1 CALLS TO GCG PACKAGE FOR TRANSPORT TIME STEP    17 IN FLOW TIME STEP     1 STRESS PERIOD     1
      2 TOTAL ITERATIONS



 >>>>>>>>>>>>>>>>>>>>>>>>>>>>>>>>>>>>>>>>>>>>>>>>>>>>>>>FOR COMPONENT NO. 01<<<<<<<<<<<<<<<<<<<<<<<<<<<<<<<<<<<<<<<<<<<<<<<<<<<<<<<


                                            -------------------------------------------
                                                      TRANSPORT STEP NO.   17
                                            -------------------------------------------

 TOTAL ELAPSED TIME SINCE BEGINNING OF SIMULATION =   146.4000    S   
 .....................................................................

                     CUMULATIVE MASS BUDGETS AT END OF TRANSPORT STEP   17, TIME STEP    1, STRESS PERIOD    1
                     -----------------------------------------------------------------------------------------

                                                             IN                           OUT
                                                      ----------------             ----------------
                               CONSTANT CONCENTRATION:    2.316637                  -0.1133190E-06
                                        CONSTANT HEAD:    0.000000                    0.000000    
                               MASS STOR (FLOW MODEL):    0.000000                    0.000000    
                                MASS STORAGE (SOLUTE):   0.3564018E-04               -2.316672    
                            ---------------------------------------------------------------------------
                                              [TOTAL]:    2.316672     KG            -2.316672     KG  

                                                          NET (IN - OUT):   0.2384186E-06
                                                   DISCREPANCY (PERCENT):   0.1029142E-04
     1 CALLS TO GCG PACKAGE FOR TRANSPORT TIME STEP    18 IN FLOW TIME STEP     1 STRESS PERIOD     1
      2 TOTAL ITERATIONS
     1 CALLS TO GCG PACKAGE FOR TRANSPORT TIME STEP    19 IN FLOW TIME STEP     1 STRESS PERIOD     1
      2 TOTAL ITERATIONS
     1 CALLS TO GCG PACKAGE FOR TRANSPORT TIME STEP    20 IN FLOW TIME STEP     1 STRESS PERIOD     1
      2 TOTAL ITERATIONS
  MAXIMUM CONCENTRATION CHANGES FOR EACH ITERATION:
  MAX. CHANGE LAYER,ROW,COL MAX. CHANGE LAYER,ROW,COL MAX. CHANGE LAYER,ROW,COL MAX. CHANGE LAYER,ROW,COL MAX. CHANGE LAYER,ROW,COL
 ------------------------------------------------------------------------------------------------------------------------------------
   0.3120E-02 (  1,  3, 10)  0.1490E-07 (  1,  2, 11)



 >>>>>>>>>>>>>>>>>>>>>>>>>>>>>>>>>>>>>>>>>>>>>>>>>>>>>>>FOR COMPONENT NO. 01<<<<<<<<<<<<<<<<<<<<<<<<<<<<<<<<<<<<<<<<<<<<<<<<<<<<<<<


                                            -------------------------------------------
                                                      TRANSPORT STEP NO.   20
                                            -------------------------------------------

 TOTAL ELAPSED TIME SINCE BEGINNING OF SIMULATION =   180.0000    S   
 .....................................................................

                     CUMULATIVE MASS BUDGETS AT END OF TRANSPORT STEP   20, TIME STEP    1, STRESS PERIOD    1
                     -----------------------------------------------------------------------------------------

                                                             IN                           OUT
                                                      ----------------             ----------------
                               CONSTANT CONCENTRATION:    2.847039                  -0.1173075E-06
                                        CONSTANT HEAD:    0.000000                    0.000000    
                               MASS STOR (FLOW MODEL):    0.000000                    0.000000    
                                MASS STORAGE (SOLUTE):   0.7142489E-04               -2.847110    
                            ---------------------------------------------------------------------------
                                              [TOTAL]:    2.847111     KG            -2.847110     KG  

                                                          NET (IN - OUT):   0.4768372E-06
                                                   DISCREPANCY (PERCENT):   0.1674811E-04


                                   ++++++++++++++++++++++++++++++++++++++++++++++++++++++++++++++
                                                       STRESS PERIOD NO.  002
                                   ++++++++++++++++++++++++++++++++++++++++++++++++++++++++++++++


 LENGTH OF CURRENT STRESS PERIOD =   3480.000    
 NUMBER OF TIME STEPS FOR CURRENT STRESS PERIOD =    1
 TIME STEP MULTIPLIER USED IN FLOW SOLUTION =   1.000000    

 ***Type of Transport Simulation is TRANSIENT

 USER-SPECIFIED TRANSPORT STEPSIZE =   0.000000    S   
 MAXIMUM NUMBER OF TRANSPORT STEPS ALLOWED  IN ONE FLOW TIME STEP =     50000
 MULTIPLIER FOR SUCCESSIVE TRANSPORT STEPS  [USED IN IMPLICIT SCHEMES] =     1.000
 MAXIMUM TRANSPORT STEP SIZE  [USED IN IMPLICIT SCHEMES] =   0.000000    S   

       NO    LAYER   ROW   COLUMN   CONCENTRATION       TYPE            COMPONENT
       1       1       1       1       0.000000         CONSTANT CONC.      1
       2       1       2       1       0.000000         CONSTANT CONC.      1
       3       1       3       1       0.000000         CONSTANT CONC.      1
       4       1       4       1       0.000000         CONSTANT CONC.      1
       5       1       5       1       0.000000         CONSTANT CONC.      1
       6       1       6       1       0.000000         CONSTANT CONC.      1
       7       1       7       1       0.000000         CONSTANT CONC.      1
       8       1       8       1       0.000000         CONSTANT CONC.      1
       9       1       9       1       0.000000         CONSTANT CONC.      1
      10       1      10       1       0.000000         CONSTANT CONC.      1
      11       1      11       1       0.000000         CONSTANT CONC.      1
      12       1      12       1       0.000000         CONSTANT CONC.      1
      13       1      13       1       0.000000         CONSTANT CONC.      1
      14       1      14       1       0.000000         CONSTANT CONC.      1
      15       1      15       1       0.000000         CONSTANT CONC.      1
      16       1      16       1       0.000000         CONSTANT CONC.      1
      17       1      17       1       0.000000         CONSTANT CONC.      1
      18       1      18       1       0.000000         CONSTANT CONC.      1
      19       1      19       1       0.000000         CONSTANT CONC.      1
      20       1      20       1       0.000000         CONSTANT CONC.      1


                                          ================================================
                                                         TIME STEP NO.  001
                                          ================================================

 FROM TIME =   180.00     TO    3660.0    



     1 CALLS TO GCG PACKAGE FOR TRANSPORT TIME STEP     1 IN FLOW TIME STEP     1 STRESS PERIOD     2
      2 TOTAL ITERATIONS



 >>>>>>>>>>>>>>>>>>>>>>>>>>>>>>>>>>>>>>>>>>>>>>>>>>>>>>>FOR COMPONENT NO. 01<<<<<<<<<<<<<<<<<<<<<<<<<<<<<<<<<<<<<<<<<<<<<<<<<<<<<<<


                                            -------------------------------------------
                                                      TRANSPORT STEP NO.    1
                                            -------------------------------------------

 TOTAL ELAPSED TIME SINCE BEGINNING OF SIMULATION =   183.0000    S   
 .....................................................................

                     CUMULATIVE MASS BUDGETS AT END OF TRANSPORT STEP    1, TIME STEP    1, STRESS PERIOD    2
                     -----------------------------------------------------------------------------------------

                                                             IN                           OUT
                                                      ----------------             ----------------
                               CONSTANT CONCENTRATION:    2.847039                  -0.1633652E-02
                                        CONSTANT HEAD:    0.000000                    0.000000    
                               MASS STOR (FLOW MODEL):    0.000000                    0.000000    
                                MASS STORAGE (SOLUTE):   0.4906536E-01               -2.894470    
                            ---------------------------------------------------------------------------
                                              [TOTAL]:    2.896104     KG            -2.896104     KG  

                                                          NET (IN - OUT):   0.4768372E-06
                                                   DISCREPANCY (PERCENT):   0.1646478E-04
     1 CALLS TO GCG PACKAGE FOR TRANSPORT TIME STEP     2 IN FLOW TIME STEP     1 STRESS PERIOD     2
      2 TOTAL ITERATIONS
     1 CALLS TO GCG PACKAGE FOR TRANSPORT TIME STEP     3 IN FLOW TIME STEP     1 STRESS PERIOD     2
      2 TOTAL ITERATIONS
     1 CALLS TO GCG PACKAGE FOR TRANSPORT TIME STEP     4 IN FLOW TIME STEP     1 STRESS PERIOD     2
      2 TOTAL ITERATIONS
     1 CALLS TO GCG PACKAGE FOR TRANSPORT TIME STEP     5 IN FLOW TIME STEP     1 STRESS PERIOD     2
      2 TOTAL ITERATIONS



 >>>>>>>>>>>>>>>>>>>>>>>>>>>>>>>>>>>>>>>>>>>>>>>>>>>>>>>FOR COMPONENT NO. 01<<<<<<<<<<<<<<<<<<<<<<<<<<<<<<<<<<<<<<<<<<<<<<<<<<<<<<<


                                            -------------------------------------------
                                                      TRANSPORT STEP NO.    5
                                            -------------------------------------------

 TOTAL ELAPSED TIME SINCE BEGINNING OF SIMULATION =   219.6000    S   
 .....................................................................

                     CUMULATIVE MASS BUDGETS AT END OF TRANSPORT STEP    5, TIME STEP    1, STRESS PERIOD    2
                     -----------------------------------------------------------------------------------------

                                                             IN                           OUT
                                                      ----------------             ----------------
                               CONSTANT CONCENTRATION:    2.847039                  -0.5662532E-02
                                        CONSTANT HEAD:    0.000000                    0.000000    
                               MASS STOR (FLOW MODEL):    0.000000                    0.000000    
                                MASS STORAGE (SOLUTE):   0.6308572                   -3.472233    
                            ---------------------------------------------------------------------------
                                              [TOTAL]:    3.477896     KG            -3.477895     KG  

                                                          NET (IN - OUT):   0.7152557E-06
                                                   DISCREPANCY (PERCENT):   0.2056576E-04
     1 CALLS TO GCG PACKAGE FOR TRANSPORT TIME STEP     6 IN FLOW TIME STEP     1 STRESS PERIOD     2
      2 TOTAL ITERATIONS
     1 CALLS TO GCG PACKAGE FOR TRANSPORT TIME STEP     7 IN FLOW TIME STEP     1 STRESS PERIOD     2
      2 TOTAL ITERATIONS
     1 CALLS TO GCG PACKAGE FOR TRANSPORT TIME STEP     8 IN FLOW TIME STEP     1 STRESS PERIOD     2
      2 TOTAL ITERATIONS
     1 CALLS TO GCG PACKAGE FOR TRANSPORT TIME STEP     9 IN FLOW TIME STEP     1 STRESS PERIOD     2
      2 TOTAL ITERATIONS



 >>>>>>>>>>>>>>>>>>>>>>>>>>>>>>>>>>>>>>>>>>>>>>>>>>>>>>>FOR COMPONENT NO. 01<<<<<<<<<<<<<<<<<<<<<<<<<<<<<<<<<<<<<<<<<<<<<<<<<<<<<<<


                                            -------------------------------------------
                                                      TRANSPORT STEP NO.    9
                                            -------------------------------------------

 TOTAL ELAPSED TIME SINCE BEGINNING OF SIMULATION =   256.2000    S   
 .....................................................................

                     CUMULATIVE MASS BUDGETS AT END OF TRANSPORT STEP    9, TIME STEP    1, STRESS PERIOD    2
                     -----------------------------------------------------------------------------------------

                                                             IN                           OUT
                                                      ----------------             ----------------
                               CONSTANT CONCENTRATION:    2.847039                  -0.5821751E-02
                                        CONSTANT HEAD:    0.000000                  -0.4574164E-35
                               MASS STOR (FLOW MODEL):    0.000000                    0.000000    
                                MASS STORAGE (SOLUTE):    1.208302                   -4.049518    
                            ---------------------------------------------------------------------------
                                              [TOTAL]:    4.055341     KG            -4.055340     KG  

                                                          NET (IN - OUT):   0.9536743E-06
                                                   DISCREPANCY (PERCENT):   0.2351651E-04
     1 CALLS TO GCG PACKAGE FOR TRANSPORT TIME STEP    10 IN FLOW TIME STEP     1 STRESS PERIOD     2
      2 TOTAL ITERATIONS
     1 CALLS TO GCG PACKAGE FOR TRANSPORT TIME STEP    11 IN FLOW TIME STEP     1 STRESS PERIOD     2
      2 TOTAL ITERATIONS
     1 CALLS TO GCG PACKAGE FOR TRANSPORT TIME STEP    12 IN FLOW TIME STEP     1 STRESS PERIOD     2
      2 TOTAL ITERATIONS
     1 CALLS TO GCG PACKAGE FOR TRANSPORT TIME STEP    13 IN FLOW TIME STEP     1 STRESS PERIOD     2
      2 TOTAL ITERATIONS



 >>>>>>>>>>>>>>>>>>>>>>>>>>>>>>>>>>>>>>>>>>>>>>>>>>>>>>>FOR COMPONENT NO. 01<<<<<<<<<<<<<<<<<<<<<<<<<<<<<<<<<<<<<<<<<<<<<<<<<<<<<<<


                                            -------------------------------------------
                                                      TRANSPORT STEP NO.   13
                                            -------------------------------------------

 TOTAL ELAPSED TIME SINCE BEGINNING OF SIMULATION =   292.8000    S   
 .....................................................................

                     CUMULATIVE MASS BUDGETS AT END OF TRANSPORT STEP   13, TIME STEP    1, STRESS PERIOD    2
                     -----------------------------------------------------------------------------------------

                                                             IN                           OUT
                                                      ----------------             ----------------
                               CONSTANT CONCENTRATION:    2.847039                  -0.5825292E-02
                                        CONSTANT HEAD:    0.000000                  -0.2152922E-31
                               MASS STOR (FLOW MODEL):    0.000000                    0.000000    
                                MASS STORAGE (SOLUTE):    1.784777                   -4.625989    
                            ---------------------------------------------------------------------------
                                              [TOTAL]:    4.631816     KG            -4.631815     KG  

                                                          NET (IN - OUT):   0.9536743E-06
                                                   DISCREPANCY (PERCENT):   0.2058964E-04
     1 CALLS TO GCG PACKAGE FOR TRANSPORT TIME STEP    14 IN FLOW TIME STEP     1 STRESS PERIOD     2
      2 TOTAL ITERATIONS
     1 CALLS TO GCG PACKAGE FOR TRANSPORT TIME STEP    15 IN FLOW TIME STEP     1 STRESS PERIOD     2
      2 TOTAL ITERATIONS
     1 CALLS TO GCG PACKAGE FOR TRANSPORT TIME STEP    16 IN FLOW TIME STEP     1 STRESS PERIOD     2
      2 TOTAL ITERATIONS
     1 CALLS TO GCG PACKAGE FOR TRANSPORT TIME STEP    17 IN FLOW TIME STEP     1 STRESS PERIOD     2
      2 TOTAL ITERATIONS



 >>>>>>>>>>>>>>>>>>>>>>>>>>>>>>>>>>>>>>>>>>>>>>>>>>>>>>>FOR COMPONENT NO. 01<<<<<<<<<<<<<<<<<<<<<<<<<<<<<<<<<<<<<<<<<<<<<<<<<<<<<<<


                                            -------------------------------------------
                                                      TRANSPORT STEP NO.   17
                                            -------------------------------------------

 TOTAL ELAPSED TIME SINCE BEGINNING OF SIMULATION =   329.4000    S   
 .....................................................................

                     CUMULATIVE MASS BUDGETS AT END OF TRANSPORT STEP   17, TIME STEP    1, STRESS PERIOD    2
                     -----------------------------------------------------------------------------------------

                                                             IN                           OUT
                                                      ----------------             ----------------
                               CONSTANT CONCENTRATION:    2.847039                  -0.5825492E-02
                                        CONSTANT HEAD:    0.000000                  -0.7982913E-28
                               MASS STOR (FLOW MODEL):    0.000000                    0.000000    
                                MASS STORAGE (SOLUTE):    2.360047                   -5.201259    
                            ---------------------------------------------------------------------------
                                              [TOTAL]:    5.207087     KG            -5.207085     KG  

                                                          NET (IN - OUT):   0.1907349E-05
                                                   DISCREPANCY (PERCENT):   0.3662987E-04
     1 CALLS TO GCG PACKAGE FOR TRANSPORT TIME STEP    18 IN FLOW TIME STEP     1 STRESS PERIOD     2
      2 TOTAL ITERATIONS
     1 CALLS TO GCG PACKAGE FOR TRANSPORT TIME STEP    19 IN FLOW TIME STEP     1 STRESS PERIOD     2
      2 TOTAL ITERATIONS
     1 CALLS TO GCG PACKAGE FOR TRANSPORT TIME STEP    20 IN FLOW TIME STEP     1 STRESS PERIOD     2
      2 TOTAL ITERATIONS
     1 CALLS TO GCG PACKAGE FOR TRANSPORT TIME STEP    21 IN FLOW TIME STEP     1 STRESS PERIOD     2
      2 TOTAL ITERATIONS



 >>>>>>>>>>>>>>>>>>>>>>>>>>>>>>>>>>>>>>>>>>>>>>>>>>>>>>>FOR COMPONENT NO. 01<<<<<<<<<<<<<<<<<<<<<<<<<<<<<<<<<<<<<<<<<<<<<<<<<<<<<<<


                                            -------------------------------------------
                                                      TRANSPORT STEP NO.   21
                                            -------------------------------------------

 TOTAL ELAPSED TIME SINCE BEGINNING OF SIMULATION =   366.0000    S   
 .....................................................................

                     CUMULATIVE MASS BUDGETS AT END OF TRANSPORT STEP   21, TIME STEP    1, STRESS PERIOD    2
                     -----------------------------------------------------------------------------------------

                                                             IN                           OUT
                                                      ----------------             ----------------
                               CONSTANT CONCENTRATION:    2.847039                  -0.5825498E-02
                                        CONSTANT HEAD:    0.000000                  -0.3228324E-24
                               MASS STOR (FLOW MODEL):    0.000000                    0.000000    
                                MASS STORAGE (SOLUTE):    2.933558                   -5.774769    
                            ---------------------------------------------------------------------------
                                              [TOTAL]:    5.780597     KG            -5.780595     KG  

                                                          NET (IN - OUT):   0.2384186E-05
                                                   DISCREPANCY (PERCENT):   0.4124464E-04
     1 CALLS TO GCG PACKAGE FOR TRANSPORT TIME STEP    22 IN FLOW TIME STEP     1 STRESS PERIOD     2
      2 TOTAL ITERATIONS
     1 CALLS TO GCG PACKAGE FOR TRANSPORT TIME STEP    23 IN FLOW TIME STEP     1 STRESS PERIOD     2
      2 TOTAL ITERATIONS
     1 CALLS TO GCG PACKAGE FOR TRANSPORT TIME STEP    24 IN FLOW TIME STEP     1 STRESS PERIOD     2
      2 TOTAL ITERATIONS
     1 CALLS TO GCG PACKAGE FOR TRANSPORT TIME STEP    25 IN FLOW TIME STEP     1 STRESS PERIOD     2
      2 TOTAL ITERATIONS



 >>>>>>>>>>>>>>>>>>>>>>>>>>>>>>>>>>>>>>>>>>>>>>>>>>>>>>>FOR COMPONENT NO. 01<<<<<<<<<<<<<<<<<<<<<<<<<<<<<<<<<<<<<<<<<<<<<<<<<<<<<<<


                                            -------------------------------------------
                                                      TRANSPORT STEP NO.   25
                                            -------------------------------------------

 TOTAL ELAPSED TIME SINCE BEGINNING OF SIMULATION =   402.6000    S   
 .....................................................................

                     CUMULATIVE MASS BUDGETS AT END OF TRANSPORT STEP   25, TIME STEP    1, STRESS PERIOD    2
                     -----------------------------------------------------------------------------------------

                                                             IN                           OUT
                                                      ----------------             ----------------
                               CONSTANT CONCENTRATION:    2.847039                  -0.5825499E-02
                                        CONSTANT HEAD:    0.000000                  -0.1349962E-20
                               MASS STOR (FLOW MODEL):    0.000000                    0.000000    
                                MASS STORAGE (SOLUTE):    3.504955                   -6.346165    
                            ---------------------------------------------------------------------------
                                              [TOTAL]:    6.351994     KG            -6.351990     KG  

                                                          NET (IN - OUT):   0.3337860E-05
                                                   DISCREPANCY (PERCENT):   0.5254824E-04
     1 CALLS TO GCG PACKAGE FOR TRANSPORT TIME STEP    26 IN FLOW TIME STEP     1 STRESS PERIOD     2
      2 TOTAL ITERATIONS
     1 CALLS TO GCG PACKAGE FOR TRANSPORT TIME STEP    27 IN FLOW TIME STEP     1 STRESS PERIOD     2
      2 TOTAL ITERATIONS
     1 CALLS TO GCG PACKAGE FOR TRANSPORT TIME STEP    28 IN FLOW TIME STEP     1 STRESS PERIOD     2
      2 TOTAL ITERATIONS
     1 CALLS TO GCG PACKAGE FOR TRANSPORT TIME STEP    29 IN FLOW TIME STEP     1 STRESS PERIOD     2
      2 TOTAL ITERATIONS



 >>>>>>>>>>>>>>>>>>>>>>>>>>>>>>>>>>>>>>>>>>>>>>>>>>>>>>>FOR COMPONENT NO. 01<<<<<<<<<<<<<<<<<<<<<<<<<<<<<<<<<<<<<<<<<<<<<<<<<<<<<<<


                                            -------------------------------------------
                                                      TRANSPORT STEP NO.   29
                                            -------------------------------------------

 TOTAL ELAPSED TIME SINCE BEGINNING OF SIMULATION =   439.2000    S   
 .....................................................................

                     CUMULATIVE MASS BUDGETS AT END OF TRANSPORT STEP   29, TIME STEP    1, STRESS PERIOD    2
                     -----------------------------------------------------------------------------------------

                                                             IN                           OUT
                                                      ----------------             ----------------
                               CONSTANT CONCENTRATION:    2.847039                  -0.5825499E-02
                                        CONSTANT HEAD:    0.000000                  -0.4502484E-17
                               MASS STOR (FLOW MODEL):    0.000000                    0.000000    
                                MASS STORAGE (SOLUTE):    4.073710                   -6.914919    
                            ---------------------------------------------------------------------------
                                              [TOTAL]:    6.920749     KG            -6.920745     KG  

                                                          NET (IN - OUT):   0.3814697E-05
                                                   DISCREPANCY (PERCENT):   0.5511973E-04
     1 CALLS TO GCG PACKAGE FOR TRANSPORT TIME STEP    30 IN FLOW TIME STEP     1 STRESS PERIOD     2
      2 TOTAL ITERATIONS
     1 CALLS TO GCG PACKAGE FOR TRANSPORT TIME STEP    31 IN FLOW TIME STEP     1 STRESS PERIOD     2
      2 TOTAL ITERATIONS
     1 CALLS TO GCG PACKAGE FOR TRANSPORT TIME STEP    32 IN FLOW TIME STEP     1 STRESS PERIOD     2
      2 TOTAL ITERATIONS
     1 CALLS TO GCG PACKAGE FOR TRANSPORT TIME STEP    33 IN FLOW TIME STEP     1 STRESS PERIOD     2
      2 TOTAL ITERATIONS



 >>>>>>>>>>>>>>>>>>>>>>>>>>>>>>>>>>>>>>>>>>>>>>>>>>>>>>>FOR COMPONENT NO. 01<<<<<<<<<<<<<<<<<<<<<<<<<<<<<<<<<<<<<<<<<<<<<<<<<<<<<<<


                                            -------------------------------------------
                                                      TRANSPORT STEP NO.   33
                                            -------------------------------------------

 TOTAL ELAPSED TIME SINCE BEGINNING OF SIMULATION =   475.8000    S   
 .....................................................................

                     CUMULATIVE MASS BUDGETS AT END OF TRANSPORT STEP   33, TIME STEP    1, STRESS PERIOD    2
                     -----------------------------------------------------------------------------------------

                                                             IN                           OUT
                                                      ----------------             ----------------
                               CONSTANT CONCENTRATION:    2.847039                  -0.5825499E-02
                                        CONSTANT HEAD:    0.000000                  -0.2052473E-13
                               MASS STOR (FLOW MODEL):    0.000000                    0.000000    
                                MASS STORAGE (SOLUTE):    4.639294                   -7.480503    
                            ---------------------------------------------------------------------------
                                              [TOTAL]:    7.486333     KG            -7.486328     KG  

                                                          NET (IN - OUT):   0.4768372E-05
                                                   DISCREPANCY (PERCENT):   0.6369438E-04
     1 CALLS TO GCG PACKAGE FOR TRANSPORT TIME STEP    34 IN FLOW TIME STEP     1 STRESS PERIOD     2
      2 TOTAL ITERATIONS
     1 CALLS TO GCG PACKAGE FOR TRANSPORT TIME STEP    35 IN FLOW TIME STEP     1 STRESS PERIOD     2
      2 TOTAL ITERATIONS
     1 CALLS TO GCG PACKAGE FOR TRANSPORT TIME STEP    36 IN FLOW TIME STEP     1 STRESS PERIOD     2
      2 TOTAL ITERATIONS
     1 CALLS TO GCG PACKAGE FOR TRANSPORT TIME STEP    37 IN FLOW TIME STEP     1 STRESS PERIOD     2
      2 TOTAL ITERATIONS



 >>>>>>>>>>>>>>>>>>>>>>>>>>>>>>>>>>>>>>>>>>>>>>>>>>>>>>>FOR COMPONENT NO. 01<<<<<<<<<<<<<<<<<<<<<<<<<<<<<<<<<<<<<<<<<<<<<<<<<<<<<<<


                                            -------------------------------------------
                                                      TRANSPORT STEP NO.   37
                                            -------------------------------------------

 TOTAL ELAPSED TIME SINCE BEGINNING OF SIMULATION =   512.4000    S   
 .....................................................................

                     CUMULATIVE MASS BUDGETS AT END OF TRANSPORT STEP   37, TIME STEP    1, STRESS PERIOD    2
                     -----------------------------------------------------------------------------------------

                                                             IN                           OUT
                                                      ----------------             ----------------
                               CONSTANT CONCENTRATION:    2.847039                  -0.5825499E-02
                                        CONSTANT HEAD:    0.000000                  -0.6600646E-10
                               MASS STOR (FLOW MODEL):    0.000000                    0.000000    
                                MASS STORAGE (SOLUTE):    5.201629                   -8.042836    
                            ---------------------------------------------------------------------------
                                              [TOTAL]:    8.048668     KG            -8.048661     KG  

                                                          NET (IN - OUT):   0.6675720E-05
                                                   DISCREPANCY (PERCENT):   0.8294197E-04
     1 CALLS TO GCG PACKAGE FOR TRANSPORT TIME STEP    38 IN FLOW TIME STEP     1 STRESS PERIOD     2
      2 TOTAL ITERATIONS
     1 CALLS TO GCG PACKAGE FOR TRANSPORT TIME STEP    39 IN FLOW TIME STEP     1 STRESS PERIOD     2
      2 TOTAL ITERATIONS
     1 CALLS TO GCG PACKAGE FOR TRANSPORT TIME STEP    40 IN FLOW TIME STEP     1 STRESS PERIOD     2
      2 TOTAL ITERATIONS
     1 CALLS TO GCG PACKAGE FOR TRANSPORT TIME STEP    41 IN FLOW TIME STEP     1 STRESS PERIOD     2
      2 TOTAL ITERATIONS



 >>>>>>>>>>>>>>>>>>>>>>>>>>>>>>>>>>>>>>>>>>>>>>>>>>>>>>>FOR COMPONENT NO. 01<<<<<<<<<<<<<<<<<<<<<<<<<<<<<<<<<<<<<<<<<<<<<<<<<<<<<<<


                                            -------------------------------------------
                                                      TRANSPORT STEP NO.   41
                                            -------------------------------------------

 TOTAL ELAPSED TIME SINCE BEGINNING OF SIMULATION =   549.0000    S   
 .....................................................................

                     CUMULATIVE MASS BUDGETS AT END OF TRANSPORT STEP   41, TIME STEP    1, STRESS PERIOD    2
                     -----------------------------------------------------------------------------------------

                                                             IN                           OUT
                                                      ----------------             ----------------
                               CONSTANT CONCENTRATION:    2.847039                  -0.5825499E-02
                                        CONSTANT HEAD:    0.000000                  -0.2202084E-06
                               MASS STOR (FLOW MODEL):    0.000000                    0.000000    
                                MASS STORAGE (SOLUTE):    5.759845                   -8.601051    
                            ---------------------------------------------------------------------------
                                              [TOTAL]:    8.606884     KG            -8.606877     KG  

                                                          NET (IN - OUT):   0.6675720E-05
                                                   DISCREPANCY (PERCENT):   0.7756260E-04
     1 CALLS TO GCG PACKAGE FOR TRANSPORT TIME STEP    42 IN FLOW TIME STEP     1 STRESS PERIOD     2
      2 TOTAL ITERATIONS
     1 CALLS TO GCG PACKAGE FOR TRANSPORT TIME STEP    43 IN FLOW TIME STEP     1 STRESS PERIOD     2
      2 TOTAL ITERATIONS
     1 CALLS TO GCG PACKAGE FOR TRANSPORT TIME STEP    44 IN FLOW TIME STEP     1 STRESS PERIOD     2
      2 TOTAL ITERATIONS
     1 CALLS TO GCG PACKAGE FOR TRANSPORT TIME STEP    45 IN FLOW TIME STEP     1 STRESS PERIOD     2
      2 TOTAL ITERATIONS



 >>>>>>>>>>>>>>>>>>>>>>>>>>>>>>>>>>>>>>>>>>>>>>>>>>>>>>>FOR COMPONENT NO. 01<<<<<<<<<<<<<<<<<<<<<<<<<<<<<<<<<<<<<<<<<<<<<<<<<<<<<<<


                                            -------------------------------------------
                                                      TRANSPORT STEP NO.   45
                                            -------------------------------------------

 TOTAL ELAPSED TIME SINCE BEGINNING OF SIMULATION =   585.6000    S   
 .....................................................................

                     CUMULATIVE MASS BUDGETS AT END OF TRANSPORT STEP   45, TIME STEP    1, STRESS PERIOD    2
                     -----------------------------------------------------------------------------------------

                                                             IN                           OUT
                                                      ----------------             ----------------
                               CONSTANT CONCENTRATION:    2.847039                  -0.5825499E-02
                                        CONSTANT HEAD:    0.000000                  -0.3374951E-03
                               MASS STOR (FLOW MODEL):    0.000000                    0.000000    
                                MASS STORAGE (SOLUTE):    6.313300                   -9.154169    
                            ---------------------------------------------------------------------------
                                              [TOTAL]:    9.160339     KG            -9.160332     KG  

                                                          NET (IN - OUT):   0.7629395E-05
                                                   DISCREPANCY (PERCENT):   0.8328728E-04
     1 CALLS TO GCG PACKAGE FOR TRANSPORT TIME STEP    46 IN FLOW TIME STEP     1 STRESS PERIOD     2
      2 TOTAL ITERATIONS
     1 CALLS TO GCG PACKAGE FOR TRANSPORT TIME STEP    47 IN FLOW TIME STEP     1 STRESS PERIOD     2
      2 TOTAL ITERATIONS
     1 CALLS TO GCG PACKAGE FOR TRANSPORT TIME STEP    48 IN FLOW TIME STEP     1 STRESS PERIOD     2
      2 TOTAL ITERATIONS
     1 CALLS TO GCG PACKAGE FOR TRANSPORT TIME STEP    49 IN FLOW TIME STEP     1 STRESS PERIOD     2
      2 TOTAL ITERATIONS



 >>>>>>>>>>>>>>>>>>>>>>>>>>>>>>>>>>>>>>>>>>>>>>>>>>>>>>>FOR COMPONENT NO. 01<<<<<<<<<<<<<<<<<<<<<<<<<<<<<<<<<<<<<<<<<<<<<<<<<<<<<<<


                                            -------------------------------------------
                                                      TRANSPORT STEP NO.   49
                                            -------------------------------------------

 TOTAL ELAPSED TIME SINCE BEGINNING OF SIMULATION =   622.2000    S   
 .....................................................................

                     CUMULATIVE MASS BUDGETS AT END OF TRANSPORT STEP   49, TIME STEP    1, STRESS PERIOD    2
                     -----------------------------------------------------------------------------------------

                                                             IN                           OUT
                                                      ----------------             ----------------
                               CONSTANT CONCENTRATION:    2.847039                  -0.5825499E-02
                                        CONSTANT HEAD:    0.000000                  -0.7148430E-02
                               MASS STOR (FLOW MODEL):    0.000000                    0.000000    
                                MASS STORAGE (SOLUTE):    6.862017                   -9.696075    
                            ---------------------------------------------------------------------------
                                              [TOTAL]:    9.709056     KG            -9.709049     KG  

                                                          NET (IN - OUT):   0.6675720E-05
                                                   DISCREPANCY (PERCENT):   0.6875768E-04
     1 CALLS TO GCG PACKAGE FOR TRANSPORT TIME STEP    50 IN FLOW TIME STEP     1 STRESS PERIOD     2
      2 TOTAL ITERATIONS
     1 CALLS TO GCG PACKAGE FOR TRANSPORT TIME STEP    51 IN FLOW TIME STEP     1 STRESS PERIOD     2
      2 TOTAL ITERATIONS
     1 CALLS TO GCG PACKAGE FOR TRANSPORT TIME STEP    52 IN FLOW TIME STEP     1 STRESS PERIOD     2
      2 TOTAL ITERATIONS
     1 CALLS TO GCG PACKAGE FOR TRANSPORT TIME STEP    53 IN FLOW TIME STEP     1 STRESS PERIOD     2
      2 TOTAL ITERATIONS



 >>>>>>>>>>>>>>>>>>>>>>>>>>>>>>>>>>>>>>>>>>>>>>>>>>>>>>>FOR COMPONENT NO. 01<<<<<<<<<<<<<<<<<<<<<<<<<<<<<<<<<<<<<<<<<<<<<<<<<<<<<<<


                                            -------------------------------------------
                                                      TRANSPORT STEP NO.   53
                                            -------------------------------------------

 TOTAL ELAPSED TIME SINCE BEGINNING OF SIMULATION =   658.8000    S   
 .....................................................................

                     CUMULATIVE MASS BUDGETS AT END OF TRANSPORT STEP   53, TIME STEP    1, STRESS PERIOD    2
                     -----------------------------------------------------------------------------------------

                                                             IN                           OUT
                                                      ----------------             ----------------
                               CONSTANT CONCENTRATION:    2.847039                  -0.5825499E-02
                                        CONSTANT HEAD:    0.000000                  -0.4159742E-01
                               MASS STOR (FLOW MODEL):    0.000000                    0.000000    
                                MASS STORAGE (SOLUTE):    7.405297                   -10.20491    
                            ---------------------------------------------------------------------------
                                              [TOTAL]:    10.25234     KG            -10.25233     KG  

                                                          NET (IN - OUT):   0.5722046E-05
                                                   DISCREPANCY (PERCENT):   0.5581214E-04
     1 CALLS TO GCG PACKAGE FOR TRANSPORT TIME STEP    54 IN FLOW TIME STEP     1 STRESS PERIOD     2
      2 TOTAL ITERATIONS
     1 CALLS TO GCG PACKAGE FOR TRANSPORT TIME STEP    55 IN FLOW TIME STEP     1 STRESS PERIOD     2
      2 TOTAL ITERATIONS
     1 CALLS TO GCG PACKAGE FOR TRANSPORT TIME STEP    56 IN FLOW TIME STEP     1 STRESS PERIOD     2
      2 TOTAL ITERATIONS
     1 CALLS TO GCG PACKAGE FOR TRANSPORT TIME STEP    57 IN FLOW TIME STEP     1 STRESS PERIOD     2
      2 TOTAL ITERATIONS



 >>>>>>>>>>>>>>>>>>>>>>>>>>>>>>>>>>>>>>>>>>>>>>>>>>>>>>>FOR COMPONENT NO. 01<<<<<<<<<<<<<<<<<<<<<<<<<<<<<<<<<<<<<<<<<<<<<<<<<<<<<<<


                                            -------------------------------------------
                                                      TRANSPORT STEP NO.   57
                                            -------------------------------------------

 TOTAL ELAPSED TIME SINCE BEGINNING OF SIMULATION =   695.4000    S   
 .....................................................................

                     CUMULATIVE MASS BUDGETS AT END OF TRANSPORT STEP   57, TIME STEP    1, STRESS PERIOD    2
                     -----------------------------------------------------------------------------------------

                                                             IN                           OUT
                                                      ----------------             ----------------
                               CONSTANT CONCENTRATION:    2.847039                  -0.5825499E-02
                                        CONSTANT HEAD:    0.000000                  -0.1293221    
                               MASS STOR (FLOW MODEL):    0.000000                    0.000000    
                                MASS STORAGE (SOLUTE):    7.942948                   -10.65483    
                            ---------------------------------------------------------------------------
                                              [TOTAL]:    10.78999     KG            -10.78998     KG  

                                                          NET (IN - OUT):   0.4768372E-05
                                                   DISCREPANCY (PERCENT):   0.4419257E-04
     1 CALLS TO GCG PACKAGE FOR TRANSPORT TIME STEP    58 IN FLOW TIME STEP     1 STRESS PERIOD     2
      2 TOTAL ITERATIONS
     1 CALLS TO GCG PACKAGE FOR TRANSPORT TIME STEP    59 IN FLOW TIME STEP     1 STRESS PERIOD     2
      2 TOTAL ITERATIONS
     1 CALLS TO GCG PACKAGE FOR TRANSPORT TIME STEP    60 IN FLOW TIME STEP     1 STRESS PERIOD     2
      2 TOTAL ITERATIONS
     1 CALLS TO GCG PACKAGE FOR TRANSPORT TIME STEP    61 IN FLOW TIME STEP     1 STRESS PERIOD     2
      2 TOTAL ITERATIONS



 >>>>>>>>>>>>>>>>>>>>>>>>>>>>>>>>>>>>>>>>>>>>>>>>>>>>>>>FOR COMPONENT NO. 01<<<<<<<<<<<<<<<<<<<<<<<<<<<<<<<<<<<<<<<<<<<<<<<<<<<<<<<


                                            -------------------------------------------
                                                      TRANSPORT STEP NO.   61
                                            -------------------------------------------

 TOTAL ELAPSED TIME SINCE BEGINNING OF SIMULATION =   732.0000    S   
 .....................................................................

                     CUMULATIVE MASS BUDGETS AT END OF TRANSPORT STEP   61, TIME STEP    1, STRESS PERIOD    2
                     -----------------------------------------------------------------------------------------

                                                             IN                           OUT
                                                      ----------------             ----------------
                               CONSTANT CONCENTRATION:    2.847039                  -0.5825499E-02
                                        CONSTANT HEAD:    0.000000                  -0.2778228    
                               MASS STOR (FLOW MODEL):    0.000000                    0.000000    
                                MASS STORAGE (SOLUTE):    8.474590                   -11.03798    
                            ---------------------------------------------------------------------------
                                              [TOTAL]:    11.32163     KG            -11.32162     KG  

                                                          NET (IN - OUT):   0.4768372E-05
                                                   DISCREPANCY (PERCENT):   0.4211737E-04
     1 CALLS TO GCG PACKAGE FOR TRANSPORT TIME STEP    62 IN FLOW TIME STEP     1 STRESS PERIOD     2
      2 TOTAL ITERATIONS
     1 CALLS TO GCG PACKAGE FOR TRANSPORT TIME STEP    63 IN FLOW TIME STEP     1 STRESS PERIOD     2
      2 TOTAL ITERATIONS
     1 CALLS TO GCG PACKAGE FOR TRANSPORT TIME STEP    64 IN FLOW TIME STEP     1 STRESS PERIOD     2
      2 TOTAL ITERATIONS
     1 CALLS TO GCG PACKAGE FOR TRANSPORT TIME STEP    65 IN FLOW TIME STEP     1 STRESS PERIOD     2
      2 TOTAL ITERATIONS



 >>>>>>>>>>>>>>>>>>>>>>>>>>>>>>>>>>>>>>>>>>>>>>>>>>>>>>>FOR COMPONENT NO. 01<<<<<<<<<<<<<<<<<<<<<<<<<<<<<<<<<<<<<<<<<<<<<<<<<<<<<<<


                                            -------------------------------------------
                                                      TRANSPORT STEP NO.   65
                                            -------------------------------------------

 TOTAL ELAPSED TIME SINCE BEGINNING OF SIMULATION =   768.6000    S   
 .....................................................................

                     CUMULATIVE MASS BUDGETS AT END OF TRANSPORT STEP   65, TIME STEP    1, STRESS PERIOD    2
                     -----------------------------------------------------------------------------------------

                                                             IN                           OUT
                                                      ----------------             ----------------
                               CONSTANT CONCENTRATION:    2.847039                  -0.5825499E-02
                                        CONSTANT HEAD:    0.000000                  -0.4767358    
                               MASS STOR (FLOW MODEL):    0.000000                    0.000000    
                                MASS STORAGE (SOLUTE):    8.999419                   -11.36389    
                            ---------------------------------------------------------------------------
                                              [TOTAL]:    11.84646     KG            -11.84645     KG  

                                                          NET (IN - OUT):   0.5722046E-05
                                                   DISCREPANCY (PERCENT):   0.4830175E-04
     1 CALLS TO GCG PACKAGE FOR TRANSPORT TIME STEP    66 IN FLOW TIME STEP     1 STRESS PERIOD     2
      2 TOTAL ITERATIONS
     1 CALLS TO GCG PACKAGE FOR TRANSPORT TIME STEP    67 IN FLOW TIME STEP     1 STRESS PERIOD     2
      2 TOTAL ITERATIONS
     1 CALLS TO GCG PACKAGE FOR TRANSPORT TIME STEP    68 IN FLOW TIME STEP     1 STRESS PERIOD     2
      2 TOTAL ITERATIONS
     1 CALLS TO GCG PACKAGE FOR TRANSPORT TIME STEP    69 IN FLOW TIME STEP     1 STRESS PERIOD     2
      2 TOTAL ITERATIONS



 >>>>>>>>>>>>>>>>>>>>>>>>>>>>>>>>>>>>>>>>>>>>>>>>>>>>>>>FOR COMPONENT NO. 01<<<<<<<<<<<<<<<<<<<<<<<<<<<<<<<<<<<<<<<<<<<<<<<<<<<<<<<


                                            -------------------------------------------
                                                      TRANSPORT STEP NO.   69
                                            -------------------------------------------

 TOTAL ELAPSED TIME SINCE BEGINNING OF SIMULATION =   805.2000    S   
 .....................................................................

                     CUMULATIVE MASS BUDGETS AT END OF TRANSPORT STEP   69, TIME STEP    1, STRESS PERIOD    2
                     -----------------------------------------------------------------------------------------

                                                             IN                           OUT
                                                      ----------------             ----------------
                               CONSTANT CONCENTRATION:    2.847039                  -0.5825499E-02
                                        CONSTANT HEAD:    0.000000                  -0.7084904    
                               MASS STOR (FLOW MODEL):    0.000000                    0.000000    
                                MASS STORAGE (SOLUTE):    9.511415                   -11.64413    
                            ---------------------------------------------------------------------------
                                              [TOTAL]:    12.35845     KG            -12.35845     KG  

                                                          NET (IN - OUT):   0.4768372E-05
                                                   DISCREPANCY (PERCENT):   0.3858389E-04
     1 CALLS TO GCG PACKAGE FOR TRANSPORT TIME STEP    70 IN FLOW TIME STEP     1 STRESS PERIOD     2
      2 TOTAL ITERATIONS
     1 CALLS TO GCG PACKAGE FOR TRANSPORT TIME STEP    71 IN FLOW TIME STEP     1 STRESS PERIOD     2
      2 TOTAL ITERATIONS
     1 CALLS TO GCG PACKAGE FOR TRANSPORT TIME STEP    72 IN FLOW TIME STEP     1 STRESS PERIOD     2
      2 TOTAL ITERATIONS
     1 CALLS TO GCG PACKAGE FOR TRANSPORT TIME STEP    73 IN FLOW TIME STEP     1 STRESS PERIOD     2
      2 TOTAL ITERATIONS



 >>>>>>>>>>>>>>>>>>>>>>>>>>>>>>>>>>>>>>>>>>>>>>>>>>>>>>>FOR COMPONENT NO. 01<<<<<<<<<<<<<<<<<<<<<<<<<<<<<<<<<<<<<<<<<<<<<<<<<<<<<<<


                                            -------------------------------------------
                                                      TRANSPORT STEP NO.   73
                                            -------------------------------------------

 TOTAL ELAPSED TIME SINCE BEGINNING OF SIMULATION =   841.8000    S   
 .....................................................................

                     CUMULATIVE MASS BUDGETS AT END OF TRANSPORT STEP   73, TIME STEP    1, STRESS PERIOD    2
                     -----------------------------------------------------------------------------------------

                                                             IN                           OUT
                                                      ----------------             ----------------
                               CONSTANT CONCENTRATION:    2.847039                  -0.5825499E-02
                                        CONSTANT HEAD:    0.000000                  -0.9489276    
                               MASS STOR (FLOW MODEL):    0.000000                    0.000000    
                                MASS STORAGE (SOLUTE):    9.991946                   -11.88423    
                            ---------------------------------------------------------------------------
                                              [TOTAL]:    12.83899     KG            -12.83898     KG  

                                                          NET (IN - OUT):   0.5722046E-05
                                                   DISCREPANCY (PERCENT):   0.4456775E-04
     1 CALLS TO GCG PACKAGE FOR TRANSPORT TIME STEP    74 IN FLOW TIME STEP     1 STRESS PERIOD     2
      2 TOTAL ITERATIONS
     1 CALLS TO GCG PACKAGE FOR TRANSPORT TIME STEP    75 IN FLOW TIME STEP     1 STRESS PERIOD     2
      2 TOTAL ITERATIONS
     1 CALLS TO GCG PACKAGE FOR TRANSPORT TIME STEP    76 IN FLOW TIME STEP     1 STRESS PERIOD     2
      2 TOTAL ITERATIONS
     1 CALLS TO GCG PACKAGE FOR TRANSPORT TIME STEP    77 IN FLOW TIME STEP     1 STRESS PERIOD     2
      2 TOTAL ITERATIONS



 >>>>>>>>>>>>>>>>>>>>>>>>>>>>>>>>>>>>>>>>>>>>>>>>>>>>>>>FOR COMPONENT NO. 01<<<<<<<<<<<<<<<<<<<<<<<<<<<<<<<<<<<<<<<<<<<<<<<<<<<<<<<


                                            -------------------------------------------
                                                      TRANSPORT STEP NO.   77
                                            -------------------------------------------

 TOTAL ELAPSED TIME SINCE BEGINNING OF SIMULATION =   878.4000    S   
 .....................................................................

                     CUMULATIVE MASS BUDGETS AT END OF TRANSPORT STEP   77, TIME STEP    1, STRESS PERIOD    2
                     -----------------------------------------------------------------------------------------

                                                             IN                           OUT
                                                      ----------------             ----------------
                               CONSTANT CONCENTRATION:    2.847039                  -0.5825499E-02
                                        CONSTANT HEAD:    0.000000                   -1.171469    
                               MASS STOR (FLOW MODEL):    0.000000                    0.000000    
                                MASS STORAGE (SOLUTE):    10.41840                   -12.08814    
                            ---------------------------------------------------------------------------
                                              [TOTAL]:    13.26544     KG            -13.26544     KG  

                                                          NET (IN - OUT):   0.5722046E-05
                                                   DISCREPANCY (PERCENT):   0.4313499E-04
     1 CALLS TO GCG PACKAGE FOR TRANSPORT TIME STEP    78 IN FLOW TIME STEP     1 STRESS PERIOD     2
      2 TOTAL ITERATIONS
     1 CALLS TO GCG PACKAGE FOR TRANSPORT TIME STEP    79 IN FLOW TIME STEP     1 STRESS PERIOD     2
      2 TOTAL ITERATIONS
     1 CALLS TO GCG PACKAGE FOR TRANSPORT TIME STEP    80 IN FLOW TIME STEP     1 STRESS PERIOD     2
      2 TOTAL ITERATIONS
     1 CALLS TO GCG PACKAGE FOR TRANSPORT TIME STEP    81 IN FLOW TIME STEP     1 STRESS PERIOD     2
      2 TOTAL ITERATIONS



 >>>>>>>>>>>>>>>>>>>>>>>>>>>>>>>>>>>>>>>>>>>>>>>>>>>>>>>FOR COMPONENT NO. 01<<<<<<<<<<<<<<<<<<<<<<<<<<<<<<<<<<<<<<<<<<<<<<<<<<<<<<<


                                            -------------------------------------------
                                                      TRANSPORT STEP NO.   81
                                            -------------------------------------------

 TOTAL ELAPSED TIME SINCE BEGINNING OF SIMULATION =   915.0000    S   
 .....................................................................

                     CUMULATIVE MASS BUDGETS AT END OF TRANSPORT STEP   81, TIME STEP    1, STRESS PERIOD    2
                     -----------------------------------------------------------------------------------------

                                                             IN                           OUT
                                                      ----------------             ----------------
                               CONSTANT CONCENTRATION:    2.847039                  -0.5825499E-02
                                        CONSTANT HEAD:    0.000000                   -1.366308    
                               MASS STOR (FLOW MODEL):    0.000000                    0.000000    
                                MASS STORAGE (SOLUTE):    10.78509                   -12.25999    
                            ---------------------------------------------------------------------------
                                              [TOTAL]:    13.63213     KG            -13.63213     KG  

                                                          NET (IN - OUT):   0.4768372E-05
                                                   DISCREPANCY (PERCENT):   0.3497892E-04
     1 CALLS TO GCG PACKAGE FOR TRANSPORT TIME STEP    82 IN FLOW TIME STEP     1 STRESS PERIOD     2
      2 TOTAL ITERATIONS
     1 CALLS TO GCG PACKAGE FOR TRANSPORT TIME STEP    83 IN FLOW TIME STEP     1 STRESS PERIOD     2
      2 TOTAL ITERATIONS
     1 CALLS TO GCG PACKAGE FOR TRANSPORT TIME STEP    84 IN FLOW TIME STEP     1 STRESS PERIOD     2
      2 TOTAL ITERATIONS
     1 CALLS TO GCG PACKAGE FOR TRANSPORT TIME STEP    85 IN FLOW TIME STEP     1 STRESS PERIOD     2
      2 TOTAL ITERATIONS



 >>>>>>>>>>>>>>>>>>>>>>>>>>>>>>>>>>>>>>>>>>>>>>>>>>>>>>>FOR COMPONENT NO. 01<<<<<<<<<<<<<<<<<<<<<<<<<<<<<<<<<<<<<<<<<<<<<<<<<<<<<<<


                                            -------------------------------------------
                                                      TRANSPORT STEP NO.   85
                                            -------------------------------------------

 TOTAL ELAPSED TIME SINCE BEGINNING OF SIMULATION =   951.6000    S   
 .....................................................................

                     CUMULATIVE MASS BUDGETS AT END OF TRANSPORT STEP   85, TIME STEP    1, STRESS PERIOD    2
                     -----------------------------------------------------------------------------------------

                                                             IN                           OUT
                                                      ----------------             ----------------
                               CONSTANT CONCENTRATION:    2.847039                  -0.5825499E-02
                                        CONSTANT HEAD:    0.000000                   -1.538452    
                               MASS STOR (FLOW MODEL):    0.000000                    0.000000    
                                MASS STORAGE (SOLUTE):    11.10217                   -12.40493    
                            ---------------------------------------------------------------------------
                                              [TOTAL]:    13.94921     KG            -13.94920     KG  

                                                          NET (IN - OUT):   0.2861023E-05
                                                   DISCREPANCY (PERCENT):   0.2051029E-04
     1 CALLS TO GCG PACKAGE FOR TRANSPORT TIME STEP    86 IN FLOW TIME STEP     1 STRESS PERIOD     2
      2 TOTAL ITERATIONS
     1 CALLS TO GCG PACKAGE FOR TRANSPORT TIME STEP    87 IN FLOW TIME STEP     1 STRESS PERIOD     2
      2 TOTAL ITERATIONS
     1 CALLS TO GCG PACKAGE FOR TRANSPORT TIME STEP    88 IN FLOW TIME STEP     1 STRESS PERIOD     2
      2 TOTAL ITERATIONS
     1 CALLS TO GCG PACKAGE FOR TRANSPORT TIME STEP    89 IN FLOW TIME STEP     1 STRESS PERIOD     2
      2 TOTAL ITERATIONS



 >>>>>>>>>>>>>>>>>>>>>>>>>>>>>>>>>>>>>>>>>>>>>>>>>>>>>>>FOR COMPONENT NO. 01<<<<<<<<<<<<<<<<<<<<<<<<<<<<<<<<<<<<<<<<<<<<<<<<<<<<<<<


                                            -------------------------------------------
                                                      TRANSPORT STEP NO.   89
                                            -------------------------------------------

 TOTAL ELAPSED TIME SINCE BEGINNING OF SIMULATION =   988.2000    S   
 .....................................................................

                     CUMULATIVE MASS BUDGETS AT END OF TRANSPORT STEP   89, TIME STEP    1, STRESS PERIOD    2
                     -----------------------------------------------------------------------------------------

                                                             IN                           OUT
                                                      ----------------             ----------------
                               CONSTANT CONCENTRATION:    2.847039                  -0.5825499E-02
                                        CONSTANT HEAD:    0.000000                   -1.693879    
                               MASS STOR (FLOW MODEL):    0.000000                    0.000000    
                                MASS STORAGE (SOLUTE):    11.37987                   -12.52720    
                            ---------------------------------------------------------------------------
                                              [TOTAL]:    14.22691     KG            -14.22691     KG  

                                                          NET (IN - OUT):   0.3814697E-05
                                                   DISCREPANCY (PERCENT):   0.2681325E-04
     1 CALLS TO GCG PACKAGE FOR TRANSPORT TIME STEP    90 IN FLOW TIME STEP     1 STRESS PERIOD     2
      2 TOTAL ITERATIONS
     1 CALLS TO GCG PACKAGE FOR TRANSPORT TIME STEP    91 IN FLOW TIME STEP     1 STRESS PERIOD     2
      2 TOTAL ITERATIONS
     1 CALLS TO GCG PACKAGE FOR TRANSPORT TIME STEP    92 IN FLOW TIME STEP     1 STRESS PERIOD     2
      2 TOTAL ITERATIONS
     1 CALLS TO GCG PACKAGE FOR TRANSPORT TIME STEP    93 IN FLOW TIME STEP     1 STRESS PERIOD     2
      2 TOTAL ITERATIONS



 >>>>>>>>>>>>>>>>>>>>>>>>>>>>>>>>>>>>>>>>>>>>>>>>>>>>>>>FOR COMPONENT NO. 01<<<<<<<<<<<<<<<<<<<<<<<<<<<<<<<<<<<<<<<<<<<<<<<<<<<<<<<


[...]


                                            -------------------------------------------
                                                      TRANSPORT STEP NO.  349
                                            -------------------------------------------

 TOTAL ELAPSED TIME SINCE BEGINNING OF SIMULATION =   3367.200    S   
 .....................................................................

                     CUMULATIVE MASS BUDGETS AT END OF TRANSPORT STEP  349, TIME STEP    1, STRESS PERIOD    2
                     -----------------------------------------------------------------------------------------

                                                             IN                           OUT
                                                      ----------------             ----------------
                               CONSTANT CONCENTRATION:    2.847039                  -0.5825499E-02
                                        CONSTANT HEAD:    0.000000                   -2.841203    
                               MASS STOR (FLOW MODEL):    0.000000                    0.000000    
                                MASS STORAGE (SOLUTE):    13.28310                   -13.28310    
                            ---------------------------------------------------------------------------
                                              [TOTAL]:    16.13013     KG            -16.13013     KG  

                                                          NET (IN - OUT):   0.3814697E-05
                                                   DISCREPANCY (PERCENT):   0.2364951E-04
     1 CALLS TO GCG PACKAGE FOR TRANSPORT TIME STEP   350 IN FLOW TIME STEP     1 STRESS PERIOD     2
      2 TOTAL ITERATIONS
     1 CALLS TO GCG PACKAGE FOR TRANSPORT TIME STEP   351 IN FLOW TIME STEP     1 STRESS PERIOD     2
      2 TOTAL ITERATIONS
     1 CALLS TO GCG PACKAGE FOR TRANSPORT TIME STEP   352 IN FLOW TIME STEP     1 STRESS PERIOD     2
      2 TOTAL ITERATIONS
     1 CALLS TO GCG PACKAGE FOR TRANSPORT TIME STEP   353 IN FLOW TIME STEP     1 STRESS PERIOD     2
      2 TOTAL ITERATIONS



 >>>>>>>>>>>>>>>>>>>>>>>>>>>>>>>>>>>>>>>>>>>>>>>>>>>>>>>FOR COMPONENT NO. 01<<<<<<<<<<<<<<<<<<<<<<<<<<<<<<<<<<<<<<<<<<<<<<<<<<<<<<<


                                            -------------------------------------------
                                                      TRANSPORT STEP NO.  353
                                            -------------------------------------------

 TOTAL ELAPSED TIME SINCE BEGINNING OF SIMULATION =   3403.800    S   
 .....................................................................

                     CUMULATIVE MASS BUDGETS AT END OF TRANSPORT STEP  353, TIME STEP    1, STRESS PERIOD    2
                     -----------------------------------------------------------------------------------------

                                                             IN                           OUT
                                                      ----------------             ----------------
                               CONSTANT CONCENTRATION:    2.847039                  -0.5825499E-02
                                        CONSTANT HEAD:    0.000000                   -2.841203    
                               MASS STOR (FLOW MODEL):    0.000000                    0.000000    
                                MASS STORAGE (SOLUTE):    13.28310                   -13.28310    
                            ---------------------------------------------------------------------------
                                              [TOTAL]:    16.13013     KG            -16.13013     KG  

                                                          NET (IN - OUT):   0.3814697E-05
                                                   DISCREPANCY (PERCENT):   0.2364951E-04
     1 CALLS TO GCG PACKAGE FOR TRANSPORT TIME STEP   354 IN FLOW TIME STEP     1 STRESS PERIOD     2
      2 TOTAL ITERATIONS
     1 CALLS TO GCG PACKAGE FOR TRANSPORT TIME STEP   355 IN FLOW TIME STEP     1 STRESS PERIOD     2
      2 TOTAL ITERATIONS
     1 CALLS TO GCG PACKAGE FOR TRANSPORT TIME STEP   356 IN FLOW TIME STEP     1 STRESS PERIOD     2
      2 TOTAL ITERATIONS
     1 CALLS TO GCG PACKAGE FOR TRANSPORT TIME STEP   357 IN FLOW TIME STEP     1 STRESS PERIOD     2
      2 TOTAL ITERATIONS



 >>>>>>>>>>>>>>>>>>>>>>>>>>>>>>>>>>>>>>>>>>>>>>>>>>>>>>>FOR COMPONENT NO. 01<<<<<<<<<<<<<<<<<<<<<<<<<<<<<<<<<<<<<<<<<<<<<<<<<<<<<<<


                                            -------------------------------------------
                                                      TRANSPORT STEP NO.  357
                                            -------------------------------------------

 TOTAL ELAPSED TIME SINCE BEGINNING OF SIMULATION =   3440.400    S   
 .....................................................................

                     CUMULATIVE MASS BUDGETS AT END OF TRANSPORT STEP  357, TIME STEP    1, STRESS PERIOD    2
                     -----------------------------------------------------------------------------------------

                                                             IN                           OUT
                                                      ----------------             ----------------
                               CONSTANT CONCENTRATION:    2.847039                  -0.5825499E-02
                                        CONSTANT HEAD:    0.000000                   -2.841203    
                               MASS STOR (FLOW MODEL):    0.000000                    0.000000    
                                MASS STORAGE (SOLUTE):    13.28310                   -13.28310    
                            ---------------------------------------------------------------------------
                                              [TOTAL]:    16.13013     KG            -16.13013     KG  

                                                          NET (IN - OUT):   0.3814697E-05
                                                   DISCREPANCY (PERCENT):   0.2364951E-04
     1 CALLS TO GCG PACKAGE FOR TRANSPORT TIME STEP   358 IN FLOW TIME STEP     1 STRESS PERIOD     2
      2 TOTAL ITERATIONS
     1 CALLS TO GCG PACKAGE FOR TRANSPORT TIME STEP   359 IN FLOW TIME STEP     1 STRESS PERIOD     2
      2 TOTAL ITERATIONS
     1 CALLS TO GCG PACKAGE FOR TRANSPORT TIME STEP   360 IN FLOW TIME STEP     1 STRESS PERIOD     2
      2 TOTAL ITERATIONS
     1 CALLS TO GCG PACKAGE FOR TRANSPORT TIME STEP   361 IN FLOW TIME STEP     1 STRESS PERIOD     2
      2 TOTAL ITERATIONS



 >>>>>>>>>>>>>>>>>>>>>>>>>>>>>>>>>>>>>>>>>>>>>>>>>>>>>>>FOR COMPONENT NO. 01<<<<<<<<<<<<<<<<<<<<<<<<<<<<<<<<<<<<<<<<<<<<<<<<<<<<<<<


                                            -------------------------------------------
                                                      TRANSPORT STEP NO.  361
                                            -------------------------------------------

 TOTAL ELAPSED TIME SINCE BEGINNING OF SIMULATION =   3477.000    S   
 .....................................................................

                     CUMULATIVE MASS BUDGETS AT END OF TRANSPORT STEP  361, TIME STEP    1, STRESS PERIOD    2
                     -----------------------------------------------------------------------------------------

                                                             IN                           OUT
                                                      ----------------             ----------------
                               CONSTANT CONCENTRATION:    2.847039                  -0.5825499E-02
                                        CONSTANT HEAD:    0.000000                   -2.841203    
                               MASS STOR (FLOW MODEL):    0.000000                    0.000000    
                                MASS STORAGE (SOLUTE):    13.28310                   -13.28310    
                            ---------------------------------------------------------------------------
                                              [TOTAL]:    16.13013     KG            -16.13013     KG  

                                                          NET (IN - OUT):   0.3814697E-05
                                                   DISCREPANCY (PERCENT):   0.2364951E-04
     1 CALLS TO GCG PACKAGE FOR TRANSPORT TIME STEP   362 IN FLOW TIME STEP     1 STRESS PERIOD     2
      2 TOTAL ITERATIONS
     1 CALLS TO GCG PACKAGE FOR TRANSPORT TIME STEP   363 IN FLOW TIME STEP     1 STRESS PERIOD     2
      2 TOTAL ITERATIONS
     1 CALLS TO GCG PACKAGE FOR TRANSPORT TIME STEP   364 IN FLOW TIME STEP     1 STRESS PERIOD     2
      2 TOTAL ITERATIONS
     1 CALLS TO GCG PACKAGE FOR TRANSPORT TIME STEP   365 IN FLOW TIME STEP     1 STRESS PERIOD     2
      2 TOTAL ITERATIONS



 >>>>>>>>>>>>>>>>>>>>>>>>>>>>>>>>>>>>>>>>>>>>>>>>>>>>>>>FOR COMPONENT NO. 01<<<<<<<<<<<<<<<<<<<<<<<<<<<<<<<<<<<<<<<<<<<<<<<<<<<<<<<


                                            -------------------------------------------
                                                      TRANSPORT STEP NO.  365
                                            -------------------------------------------

 TOTAL ELAPSED TIME SINCE BEGINNING OF SIMULATION =   3513.600    S   
 .....................................................................

                     CUMULATIVE MASS BUDGETS AT END OF TRANSPORT STEP  365, TIME STEP    1, STRESS PERIOD    2
                     -----------------------------------------------------------------------------------------

                                                             IN                           OUT
                                                      ----------------             ----------------
                               CONSTANT CONCENTRATION:    2.847039                  -0.5825499E-02
                                        CONSTANT HEAD:    0.000000                   -2.841203    
                               MASS STOR (FLOW MODEL):    0.000000                    0.000000    
                                MASS STORAGE (SOLUTE):    13.28310                   -13.28310    
                            ---------------------------------------------------------------------------
                                              [TOTAL]:    16.13013     KG            -16.13013     KG  

                                                          NET (IN - OUT):   0.3814697E-05
                                                   DISCREPANCY (PERCENT):   0.2364951E-04
     1 CALLS TO GCG PACKAGE FOR TRANSPORT TIME STEP   366 IN FLOW TIME STEP     1 STRESS PERIOD     2
      2 TOTAL ITERATIONS
     1 CALLS TO GCG PACKAGE FOR TRANSPORT TIME STEP   367 IN FLOW TIME STEP     1 STRESS PERIOD     2
      2 TOTAL ITERATIONS
     1 CALLS TO GCG PACKAGE FOR TRANSPORT TIME STEP   368 IN FLOW TIME STEP     1 STRESS PERIOD     2
      2 TOTAL ITERATIONS
     1 CALLS TO GCG PACKAGE FOR TRANSPORT TIME STEP   369 IN FLOW TIME STEP     1 STRESS PERIOD     2
      2 TOTAL ITERATIONS



 >>>>>>>>>>>>>>>>>>>>>>>>>>>>>>>>>>>>>>>>>>>>>>>>>>>>>>>FOR COMPONENT NO. 01<<<<<<<<<<<<<<<<<<<<<<<<<<<<<<<<<<<<<<<<<<<<<<<<<<<<<<<


                                            -------------------------------------------
                                                      TRANSPORT STEP NO.  369
                                            -------------------------------------------

 TOTAL ELAPSED TIME SINCE BEGINNING OF SIMULATION =   3550.200    S   
 .....................................................................

                     CUMULATIVE MASS BUDGETS AT END OF TRANSPORT STEP  369, TIME STEP    1, STRESS PERIOD    2
                     -----------------------------------------------------------------------------------------

                                                             IN                           OUT
                                                      ----------------             ----------------
                               CONSTANT CONCENTRATION:    2.847039                  -0.5825499E-02
                                        CONSTANT HEAD:    0.000000                   -2.841203    
                               MASS STOR (FLOW MODEL):    0.000000                    0.000000    
                                MASS STORAGE (SOLUTE):    13.28310                   -13.28310    
                            ---------------------------------------------------------------------------
                                              [TOTAL]:    16.13013     KG            -16.13013     KG  

                                                          NET (IN - OUT):   0.3814697E-05
                                                   DISCREPANCY (PERCENT):   0.2364951E-04
     1 CALLS TO GCG PACKAGE FOR TRANSPORT TIME STEP   370 IN FLOW TIME STEP     1 STRESS PERIOD     2
      2 TOTAL ITERATIONS
     1 CALLS TO GCG PACKAGE FOR TRANSPORT TIME STEP   371 IN FLOW TIME STEP     1 STRESS PERIOD     2
      2 TOTAL ITERATIONS
     1 CALLS TO GCG PACKAGE FOR TRANSPORT TIME STEP   372 IN FLOW TIME STEP     1 STRESS PERIOD     2
      2 TOTAL ITERATIONS
     1 CALLS TO GCG PACKAGE FOR TRANSPORT TIME STEP   373 IN FLOW TIME STEP     1 STRESS PERIOD     2
      2 TOTAL ITERATIONS



 >>>>>>>>>>>>>>>>>>>>>>>>>>>>>>>>>>>>>>>>>>>>>>>>>>>>>>>FOR COMPONENT NO. 01<<<<<<<<<<<<<<<<<<<<<<<<<<<<<<<<<<<<<<<<<<<<<<<<<<<<<<<


                                            -------------------------------------------
                                                      TRANSPORT STEP NO.  373
                                            -------------------------------------------

 TOTAL ELAPSED TIME SINCE BEGINNING OF SIMULATION =   3586.800    S   
 .....................................................................

                     CUMULATIVE MASS BUDGETS AT END OF TRANSPORT STEP  373, TIME STEP    1, STRESS PERIOD    2
                     -----------------------------------------------------------------------------------------

                                                             IN                           OUT
                                                      ----------------             ----------------
                               CONSTANT CONCENTRATION:    2.847039                  -0.5825499E-02
                                        CONSTANT HEAD:    0.000000                   -2.841203    
                               MASS STOR (FLOW MODEL):    0.000000                    0.000000    
                                MASS STORAGE (SOLUTE):    13.28310                   -13.28310    
                            ---------------------------------------------------------------------------
                                              [TOTAL]:    16.13013     KG            -16.13013     KG  

                                                          NET (IN - OUT):   0.3814697E-05
                                                   DISCREPANCY (PERCENT):   0.2364951E-04
     1 CALLS TO GCG PACKAGE FOR TRANSPORT TIME STEP   374 IN FLOW TIME STEP     1 STRESS PERIOD     2
      2 TOTAL ITERATIONS
     1 CALLS TO GCG PACKAGE FOR TRANSPORT TIME STEP   375 IN FLOW TIME STEP     1 STRESS PERIOD     2
      2 TOTAL ITERATIONS
     1 CALLS TO GCG PACKAGE FOR TRANSPORT TIME STEP   376 IN FLOW TIME STEP     1 STRESS PERIOD     2
      2 TOTAL ITERATIONS
     1 CALLS TO GCG PACKAGE FOR TRANSPORT TIME STEP   377 IN FLOW TIME STEP     1 STRESS PERIOD     2
      2 TOTAL ITERATIONS



 >>>>>>>>>>>>>>>>>>>>>>>>>>>>>>>>>>>>>>>>>>>>>>>>>>>>>>>FOR COMPONENT NO. 01<<<<<<<<<<<<<<<<<<<<<<<<<<<<<<<<<<<<<<<<<<<<<<<<<<<<<<<


                                            -------------------------------------------
                                                      TRANSPORT STEP NO.  377
                                            -------------------------------------------

 TOTAL ELAPSED TIME SINCE BEGINNING OF SIMULATION =   3623.400    S   
 .....................................................................

                     CUMULATIVE MASS BUDGETS AT END OF TRANSPORT STEP  377, TIME STEP    1, STRESS PERIOD    2
                     -----------------------------------------------------------------------------------------

                                                             IN                           OUT
                                                      ----------------             ----------------
                               CONSTANT CONCENTRATION:    2.847039                  -0.5825499E-02
                                        CONSTANT HEAD:    0.000000                   -2.841203    
                               MASS STOR (FLOW MODEL):    0.000000                    0.000000    
                                MASS STORAGE (SOLUTE):    13.28310                   -13.28310    
                            ---------------------------------------------------------------------------
                                              [TOTAL]:    16.13013     KG            -16.13013     KG  

                                                          NET (IN - OUT):   0.3814697E-05
                                                   DISCREPANCY (PERCENT):   0.2364951E-04
     1 CALLS TO GCG PACKAGE FOR TRANSPORT TIME STEP   378 IN FLOW TIME STEP     1 STRESS PERIOD     2
      2 TOTAL ITERATIONS
     1 CALLS TO GCG PACKAGE FOR TRANSPORT TIME STEP   379 IN FLOW TIME STEP     1 STRESS PERIOD     2
      2 TOTAL ITERATIONS
     1 CALLS TO GCG PACKAGE FOR TRANSPORT TIME STEP   380 IN FLOW TIME STEP     1 STRESS PERIOD     2
      2 TOTAL ITERATIONS
     1 CALLS TO GCG PACKAGE FOR TRANSPORT TIME STEP   381 IN FLOW TIME STEP     1 STRESS PERIOD     2
      2 TOTAL ITERATIONS
  MAXIMUM CONCENTRATION CHANGES FOR EACH ITERATION:
  MAX. CHANGE LAYER,ROW,COL MAX. CHANGE LAYER,ROW,COL MAX. CHANGE LAYER,ROW,COL MAX. CHANGE LAYER,ROW,COL MAX. CHANGE LAYER,ROW,COL
 ------------------------------------------------------------------------------------------------------------------------------------
   0.6049E-02 (  1, 19, 40)  0.3638E-11 (  1, 20, 39)



 >>>>>>>>>>>>>>>>>>>>>>>>>>>>>>>>>>>>>>>>>>>>>>>>>>>>>>>FOR COMPONENT NO. 01<<<<<<<<<<<<<<<<<<<<<<<<<<<<<<<<<<<<<<<<<<<<<<<<<<<<<<<


                                            -------------------------------------------
                                                      TRANSPORT STEP NO.  381
                                            -------------------------------------------

 TOTAL ELAPSED TIME SINCE BEGINNING OF SIMULATION =   3660.000    S   
 .....................................................................

                     CUMULATIVE MASS BUDGETS AT END OF TRANSPORT STEP  381, TIME STEP    1, STRESS PERIOD    2
                     -----------------------------------------------------------------------------------------

                                                             IN                           OUT
                                                      ----------------             ----------------
                               CONSTANT CONCENTRATION:    2.847039                  -0.5825499E-02
                                        CONSTANT HEAD:    0.000000                   -2.841203    
                               MASS STOR (FLOW MODEL):    0.000000                    0.000000    
                                MASS STORAGE (SOLUTE):    13.28310                   -13.28310    
                            ---------------------------------------------------------------------------
                                              [TOTAL]:    16.13013     KG            -16.13013     KG  

                                                          NET (IN - OUT):   0.3814697E-05
                                                   DISCREPANCY (PERCENT):   0.2364951E-04
  ----- 
 | M T |
 | 3 D | END OF MODEL OUTPUT
  ----- 
