                                   MODFLOW 6
                U.S. GEOLOGICAL SURVEY MODULAR HYDROLOGIC MODEL
                            VERSION 6.6.1 02/10/2025

   MODFLOW 6 compiled Feb 14 2025 13:40:10 with Intel(R) Fortran Intel(R) 64
   Compiler Classic for applications running on Intel(R) 64, Version 2021.7.0
                             Build 20220726_000000

This software has been approved for release by the U.S. Geological 
Survey (USGS). Although the software has been subjected to rigorous 
review, the USGS reserves the right to update the software as needed 
pursuant to further analysis and review. No warranty, expressed or 
implied, is made by the USGS or the U.S. Government as to the 
functionality of the software and related material nor shall the 
fact of release constitute any such warranty. Furthermore, the 
software is released on condition that neither the USGS nor the U.S. 
Government shall be held liable for any damages resulting from its 
authorized or unauthorized use. Also refer to the USGS Water 
Resources Software User Rights Notice for complete use, copyright, 
and distribution information.


As a work of the United States Government, this USGS product is 
in the public domain within the United States. You can copy, 
modify, distribute, and perform the work, even for commercial 
purposes, all without asking permission. Additionally, USGS 
waives copyright and related rights in the work worldwide 
through CC0 1.0 Universal Public Domain Dedication 
(https://creativecommons.org/publicdomain/zero/1.0/).

The following GNU Lesser General Public License (LGPL) libraries
are used in this USGS product:

    SPARSKIT version 2.0
      ilut, luson, and qsplit 
      (https://www-users.cse.umn.edu/~saad/software/SPARSKIT/)

    RCM - Reverse Cuthill McKee Ordering
      (https://people.math.sc.edu/Burkardt/f_src/rcm/rcm.html)

    BLAS - Basic Linear Algebra Subprograms Level 1
      (https://people.math.sc.edu/Burkardt/f_src/blas1_d/blas1_d.html)

    SPARSEKIT - Sparse Matrix Utility Package
      amux, dperm, dvperm, rperm, and cperm
      (https://people.sc.fsu.edu/~jburkardt/f77_src/sparsekit/sparsekit.html)

The following BSD-3 License libraries are used in this USGS product:

    Modern Fortran DAG Library
      Copyright (c) 2018, Jacob Williams
      All rights reserved.
      (https://github.com/jacobwilliams/daglib)

MODFLOW 6 compiler options: /O2 /heap-arrays:0 /fpe:0 /traceback /nologo /fpp
/c /module:win64\mod_mf6\ /object:win64\obj_mf6\

System command used to initiate simulation:
C:\Users\gross.DESKTOP-AIRQM2M\anaconda3\Scripts\mf6.exe

MODFLOW was compiled using uniform precision.

Real Variables
  KIND: 8
  TINY (smallest non-zero value):    2.225074-308
  HUGE (largest value):    1.797693+308
  PRECISION: 15
  SIZE IN BITS: 64

Integer Variables
  KIND: 4
  HUGE (largest value): 2147483647
  SIZE IN BITS: 32

Long Integer Variables
  KIND: 8
  HUGE (largest value): 9223372036854775807
  SIZE IN BITS: 64

Logical Variables
  KIND: 4
  SIZE IN BITS: 32
 

 OPENED mfsim.nam
 FILE TYPE:NAM6               UNIT 1001   STATUS:OLD                 
 FORMAT:FORMATTED              ACCESS:SEQUENTIAL          
 ACTION:READ                

 # File generated by Flopy version 3.9.1 on 05/12/2025 at 07:13:39.

 OPENED ex-gwf-bump.tdis
 FILE TYPE:TDIS6              UNIT 1002   STATUS:OLD                 
 FORMAT:FORMATTED              ACCESS:SEQUENTIAL          
 ACTION:READ                

 # File generated by Flopy version 3.9.1 on 05/12/2025 at 07:13:39.

 OPENED ex-gwf-bump.nam
 FILE TYPE:GWF6               UNIT 1003   STATUS:OLD                 
 FORMAT:FORMATTED              ACCESS:SEQUENTIAL          
 ACTION:READ                

 # File generated by Flopy version 3.9.1 on 05/12/2025 at 07:13:39.

 OPENED ex-gwf-bump.dis
 FILE TYPE:DIS6               UNIT 1004   STATUS:OLD                 
 FORMAT:FORMATTED              ACCESS:SEQUENTIAL          
 ACTION:READ                

 # File generated by Flopy version 3.9.1 on 05/12/2025 at 07:13:39.

 OPENED ex-gwf-bump.npf
 FILE TYPE:NPF6               UNIT 1005   STATUS:OLD                 
 FORMAT:FORMATTED              ACCESS:SEQUENTIAL          
 ACTION:READ                

 # File generated by Flopy version 3.9.1 on 05/12/2025 at 07:13:39.

 OPENED ex-gwf-bump.ic
 FILE TYPE:IC6                UNIT 1006   STATUS:OLD                 
 FORMAT:FORMATTED              ACCESS:SEQUENTIAL          
 ACTION:READ                

 # File generated by Flopy version 3.9.1 on 05/12/2025 at 07:13:39.

 OPENED ex-gwf-bump.oc
 FILE TYPE:OC6       UNIT 1007   STATUS:OLD                 
 FORMAT:FORMATTED              ACCESS:SEQUENTIAL          
 ACTION:READ                


 OPENED ex-gwf-bump.chd
 FILE TYPE:CHD6               UNIT 1008   STATUS:OLD                 
 FORMAT:FORMATTED              ACCESS:SEQUENTIAL          
 ACTION:READ                

 # File generated by Flopy version 3.9.1 on 05/12/2025 at 07:13:39.

 READING SIMULATION OPTIONS
    MAXIMUM NUMBER OF ERRORS THAT WILL BE STORED IS 1000
 END OF SIMULATION OPTIONS

 READING SIMULATION TIMING

 TDIS -- TEMPORAL DISCRETIZATION PACKAGE,
 VERSION 1 : 11/13/2014 - INPUT READ FROM MEMPATH: __INPUT__/SIM/TDIS                                
 PROCESSING TDIS OPTIONS
    SIMULATION TIME UNIT IS DAYS
 END OF TDIS OPTIONS
 PROCESSING TDIS DIMENSIONS
    1 STRESS PERIOD(S) IN SIMULATION
 END OF TDIS DIMENSIONS
 PROCESSING TDIS PERIODDATA


 STRESS PERIOD     LENGTH       TIME STEPS     MULTIPLIER FOR DELT
 ----------------------------------------------------------------------------
        1         1.000000          1                    1.000
 END OF TDIS PERIODDATA
 END OF SIMULATION TIMING

 READING SIMULATION MODELS
    GWF6 model 1 will be created
 END OF SIMULATION MODELS

 READING SIMULATION EXCHANGES
 END OF SIMULATION EXCHANGES

 READING SOLUTIONGROUP

 Creating solution: SLN_1           

 OPENED ex-gwf-bump.ims
 FILE TYPE:IMS   UNIT 1010   STATUS:OLD                 
 FORMAT:FORMATTED              ACCESS:SEQUENTIAL          
 ACTION:READ                

 END OF SOLUTIONGROUP

PROCESSING MODEL CONNECTIONS

 IMS -- ITERATIVE MODEL SOLUTION PACKAGE, VERSION 6, 4/28/2017
         INPUT READ FROM UNIT 1010
 # File generated by Flopy version 3.9.1 on 05/12/2025 at 07:13:39.

 PROCESSING IMS OPTIONS
 END OF IMS OPTIONS

 PROCESSING IMS NONLINEAR
 END OF IMS NONLINEAR DATA
 ***UNDER-RELAXATION WILL NOT BE USED***
 

 PROCESSING LINEAR DATA
 END OF LINEAR DATA
 ***IMS LINEAR SOLVER WILL BE USED***

 IMSLINEAR -- UNSTRUCTURED LINEAR SOLUTION PACKAGE, VERSION 8, 04/28/2017
 An asymmetric matrix will be solved

 OUTER ITERATION CONVERGENCE CRITERION    (DVCLOSE) =    0.100000E-08
 MAXIMUM NUMBER OF OUTER ITERATIONS        (MXITER) = 500
 SOLVER PRINTOUT INDEX                     (IPRIMS) = 2
 NONLINEAR ITERATION METHOD            (NONLINMETH) = 0
 LINEAR SOLUTION METHOD                   (LINMETH) = 1

       SOLUTION BY THE BICONJUGATE-GRADIENT STABILIZED METHOD
 ------------------------------------------------------------------
 MAXIMUM OF 500 CALLS OF SOLUTION ROUTINE
 MAXIMUM OF 500 INTERNAL ITERATIONS PER CALL TO SOLUTION ROUTINE
 LINEAR ACCELERATION METHOD            = BCGS      
 MATRIX PRECONDITIONING TYPE           = INCOMPLETE LU       
 MATRIX SCALING APPROACH               = NO SCALING          
 MATRIX REORDERING APPROACH            = ORIGINAL ORDERING        
 NUMBER OF ORTHOGONALIZATIONS          = 0
 HEAD CHANGE CRITERION FOR CLOSURE     =    0.10000E-08
 RESIDUAL CHANGE CRITERION FOR CLOSURE =    0.10000E-05
 RESIDUAL CONVERGENCE OPTION           = 0
 RESIDUAL CONVERGENCE NORM             = INFINITY NORM   
 RELAXATION FACTOR                     =    0.00000E+00



 
    Solving:  Stress period:     1    Time step:     1
 
1
 STRESS PERIOD NO. 1, LENGTH =   1.000000    
 ------------------------------------------
 NUMBER OF TIME STEPS = 1
 MULTIPLIER FOR DELT =     1.000
 INITIAL TIME STEP SIZE =   1.000000    



 PSEUDO-TRANSIENT CONTINUATION WILL BE APPLIED TO MODEL 1 ("EX-GWF-BUMP") DURING THIS TIME STEP

 SLN_1 OUTER ITERATION SUMMARY
 ----------------------------------------------------------------------------------------------------------
                                OUTER      INNER                    STEP   MAXIMUM CHANGE MODEL-(CELLID) OR
 OUTER ITERATION STEP       ITERATION  ITERATION  MAXIMUM CHANGE SUCCESS             MODEL-PACKAGE-(NUMBER)
 ----------------------------------------------------------------------------------------------------------
 Model                              1         29      -2.6011841                            1_GWF-(1,26,50)
 Model                              2         42      -1.3762721                            1_GWF-(1,26,48)
 Model                              3         45      -1.3202352                            1_GWF-(1,26,39)
 Model                              4         52     -0.90366928                            1_GWF-(1,26,33)
 Model                              5         54     -0.20894392                            1_GWF-(1,26,34)
 Model                              6         47 -7.65433066E-03                            1_GWF-(1,26,36)
 Model                              7         25 -1.05166980E-05                            1_GWF-(1,26,37)
 Model                              8          3 -4.55468161E-08                            1_GWF-(1,25,18)
 Model                              9          4 -1.72225203E-08                             1_GWF-(1,2,35)
 Model                             10          3 -1.14628573E-08                            1_GWF-(1,26,37)
 Model                             11          1 -8.89392560E-10       *                    1_GWF-(1,36,38)
 ----------------------------------------------------------------------------------------------------------


 11 CALLS TO NUMERICAL SOLUTION IN TIME STEP 1 STRESS PERIOD 1
 305 TOTAL ITERATIONS

 SLN_1 INNER ITERATION SUMMARY
 --------------------------------------------------------------------------------------------------------------------------------------
      TOTAL      OUTER      INNER                                                            MAXIMUM                                   
  ITERATION  ITERATION  ITERATION  MAXIMUM CHANGE      MAXIMUM CHANGE MODEL-(CELLID)        RESIDUAL    MAXIMUM RESIDUAL MODEL-(CELLID)
 --------------------------------------------------------------------------------------------------------------------------------------
          1          1          1      -2.4078867                    1_GWF-(1,51,50)       1.7181715                    1_GWF-(1,50,48)
          2          1          2     -0.54019119                    1_GWF-(1,48,47)      0.53048203                     1_GWF-(1,3,48)
          3          1          3     -0.21335368                    1_GWF-(1,45,46)      0.19806169                     1_GWF-(1,3,47)
          4          1          4     -0.11797477                    1_GWF-(1,42,44)      0.11174968                     1_GWF-(1,3,47)
          5          1          5 -5.27019542E-02                    1_GWF-(1,39,42) -4.69435997E-02                     1_GWF-(1,2,48)
          6          1          6 -2.78302943E-02                    1_GWF-(1,26,40) -3.78128751E-02                     1_GWF-(1,2,48)
          7          1          7 -1.34550790E-02                    1_GWF-(1,26,37) -1.48823335E-02                     1_GWF-(1,2,48)
          8          1          8 -7.62686073E-03                    1_GWF-(1,27,35) -9.56878521E-03                     1_GWF-(1,2,48)
          9          1          9 -3.62021241E-03                    1_GWF-(1,29,34) -3.24837863E-03                     1_GWF-(1,2,48)
         10          1         10 -1.71999031E-03                    1_GWF-(1,32,32) -2.20378841E-03                     1_GWF-(1,2,48)
         11          1         11 -6.58105287E-04                    1_GWF-(1,36,30) -7.85624272E-04                     1_GWF-(1,2,48)
         12          1         12 -3.41712280E-04                    1_GWF-(1,10,27) -4.76951309E-04                     1_GWF-(1,2,48)
         13          1         13 -1.60661464E-04                     1_GWF-(1,7,25) -1.70579177E-04                     1_GWF-(1,2,48)
         14          1         14 -8.67425613E-05                     1_GWF-(1,5,23) -9.29779532E-05                     1_GWF-(1,2,47)
         15          1         15 -4.07831024E-05                     1_GWF-(1,4,22) -3.70508085E-05                     1_GWF-(1,2,47)
         16          1         16 -2.14071211E-05                     1_GWF-(1,4,20) -1.78258880E-05                     1_GWF-(1,2,47)
         17          1         17 -9.90189814E-06                     1_GWF-(1,4,18)  7.54915800E-06                     1_GWF-(1,2,45)
         18          1         18 -4.90782615E-06                     1_GWF-(1,4,16)  3.42756850E-06                     1_GWF-(1,2,45)
         19          1         19 -2.18120731E-06                     1_GWF-(1,5,15)  1.32928194E-06                     1_GWF-(1,2,45)
         20          1         20 -9.51299149E-07                    1_GWF-(1,22,15)  5.76140897E-07                     1_GWF-(1,2,45)
         21          1         21 -3.90906773E-07                    1_GWF-(1,22,15)  2.14233961E-07                     1_GWF-(1,2,45)
         22          1         22 -1.58618229E-07                    1_GWF-(1,22,15)  1.18680872E-07                     1_GWF-(1,2,45)
         23          1         23 -5.85885100E-08                    1_GWF-(1,22,16)  5.75030994E-08                     1_GWF-(1,2,44)
         24          1         24 -2.56786161E-08                    1_GWF-(1,22,20)  3.29874659E-08                     1_GWF-(1,2,44)
         25          1         25 -1.41111222E-08                    1_GWF-(1,22,21)  1.13371894E-08                     1_GWF-(1,2,44)
         26          1         26 -9.25913584E-09                    1_GWF-(1,22,21)  4.09613482E-09                     1_GWF-(1,2,44)
         27          1         27 -3.39393559E-09                    1_GWF-(1,22,21) -1.50219724E-09                    1_GWF-(1,47,25)
         28          1         28  1.23724646E-09                    1_GWF-(1,48,25)  9.53516319E-10                     1_GWF-(1,2,25)
         29          1         29  3.14274233E-10                    1_GWF-(1,47,25)  8.34048791E-10                     1_GWF-(1,2,25)
         30          2          1      -1.0408283                    1_GWF-(1,51,50)      0.69264159                    1_GWF-(1,49,48)
         31          2          2     -0.41526576                    1_GWF-(1,48,47)      0.30480317                     1_GWF-(1,3,47)
         32          2          3     -0.30554413                    1_GWF-(1,46,45)      0.16017289                     1_GWF-(1,2,42)
         33          2          4     -0.22043176                    1_GWF-(1,44,43)     -0.13750974                     1_GWF-(1,2,48)
         34          2          5     -0.15327609                    1_GWF-(1,26,41)      0.10666321                    1_GWF-(1,30,32)
         35          2          6     -0.12100701                    1_GWF-(1,26,37) -9.24636612E-02                     1_GWF-(1,2,48)
         36          2          7 -9.93361840E-02                    1_GWF-(1,26,34)  6.83532452E-02                    1_GWF-(1,31,31)
         37          2          8 -7.69611940E-02                    1_GWF-(1,27,33) -4.32994803E-02                     1_GWF-(1,2,48)
         38          2          9 -5.09582601E-02                    1_GWF-(1,30,32) -2.67447099E-02                     1_GWF-(1,2,48)
         39          2         10 -2.99905009E-02                    1_GWF-(1,32,30) -2.06126579E-02                     1_GWF-(1,2,48)
         40          2         11 -1.80494405E-02                    1_GWF-(1,37,28)  1.15499307E-02                    1_GWF-(1,21,22)
         41          2         12 -1.34456559E-02                    1_GWF-(1,41,25)  1.08589230E-02                    1_GWF-(1,21,22)
         42          2         13 -9.80935618E-03                     1_GWF-(1,5,23)  7.33469822E-03                    1_GWF-(1,21,22)
         43          2         14 -7.61853919E-03                     1_GWF-(1,3,21)  5.99186479E-03                    1_GWF-(1,21,22)
         44          2         15 -5.51100528E-03                     1_GWF-(1,3,20)  3.67392752E-03                    1_GWF-(1,21,22)
         45          2         16 -4.17661163E-03                     1_GWF-(1,2,18)  2.84754447E-03                    1_GWF-(1,21,22)
         46          2         17 -2.75269407E-03                     1_GWF-(1,3,16)  1.57701878E-03                    1_GWF-(1,21,22)
         47          2         18 -1.97588799E-03                    1_GWF-(1,25,17)  1.18304670E-03                    1_GWF-(1,21,22)
         48          2         19 -1.20239574E-03                    1_GWF-(1,25,16)  5.30949170E-04                    1_GWF-(1,21,22)
         49          2         20 -6.88742351E-04                    1_GWF-(1,25,15)  3.76954750E-04                    1_GWF-(1,21,22)
         50          2         21 -3.32964101E-04                    1_GWF-(1,25,15)  1.91687720E-04                    1_GWF-(1,21,22)
         51          2         22 -1.67916262E-04                    1_GWF-(1,25,15)  1.60074231E-04                    1_GWF-(1,21,22)
         52          2         23  3.95525687E-04                    1_GWF-(1,24,17)  1.70872839E-04                    1_GWF-(1,22,21)
         53          2         24 -6.75283097E-04                    1_GWF-(1,24,17)  2.00316773E-05                    1_GWF-(1,22,21)
         54          2         25 -1.72896972E-05                     1_GWF-(1,2,17)  1.69393313E-05                    1_GWF-(1,22,21)
         55          2         26 -1.29444427E-05                     1_GWF-(1,2,17)  7.87578615E-06                    1_GWF-(1,22,21)
         56          2         27 -7.46959962E-06                     1_GWF-(1,2,17)  9.61910663E-06                    1_GWF-(1,22,21)
         57          2         28 -3.15006891E-06                     1_GWF-(1,2,21)  3.90745038E-06                    1_GWF-(1,22,21)
         58          2         29 -2.48083433E-06                     1_GWF-(1,2,25)  3.85416371E-06                    1_GWF-(1,22,21)
         59          2         30 -7.23841999E-06                     1_GWF-(1,2,27)  2.39257609E-06                    1_GWF-(1,22,21)
         60          2         31  2.27244810E-07                    1_GWF-(1,21,22)  2.11283972E-07                    1_GWF-(1,30,32)
         61          2         32 -2.60898179E-07                    1_GWF-(1,20,23) -2.20686624E-07                    1_GWF-(1,33,29)
         62          2         33 -5.79262315E-08                     1_GWF-(1,2,20) -7.98904826E-08                    1_GWF-(1,33,29)
         63          2         34 -1.30484340E-07                     1_GWF-(1,2,19) -1.00155169E-07                    1_GWF-(1,33,29)
         64          2         35  4.82749519E-08                     1_GWF-(1,2,19)  3.39894462E-08                     1_GWF-(1,2,16)
         65          2         36 -9.85038200E-08                     1_GWF-(1,2,19) -4.99121922E-08                    1_GWF-(1,23,20)
         66          2         37 -6.19386853E-08                     1_GWF-(1,2,20)  1.81634570E-08                    1_GWF-(1,24,19)
         67          2         38 -1.83053000E-08                     1_GWF-(1,2,24) -4.98980192E-09                    1_GWF-(1,50,12)
         68          2         39  2.18708892E-09                    1_GWF-(1,50,12) -4.24065831E-09                    1_GWF-(1,50,12)
         69          2         40  2.27279420E-08                    1_GWF-(1,50,13)  2.63613897E-09                    1_GWF-(1,50,11)
         70          2         41 -1.37650060E-08                    1_GWF-(1,50,13) -1.52037673E-09                    1_GWF-(1,50,12)
         71          2         42  9.58277587E-10                     1_GWF-(1,2,35) -1.77277521E-09                    1_GWF-(1,50,12)
         72          3          1     -0.35327908                    1_GWF-(1,51,50)      0.21377480                    1_GWF-(1,49,48)
         73          3          2     -0.25864343                    1_GWF-(1,49,47)      0.12033165                    1_GWF-(1,49,43)
         74          3          3     -0.28126745                    1_GWF-(1,26,44)     -0.10591897                     1_GWF-(1,2,48)
         75          3          4     -0.24447238                    1_GWF-(1,26,42)     -0.11208381                     1_GWF-(1,2,48)
         76          3          5     -0.21564827                    1_GWF-(1,26,38)     -0.11265553                     1_GWF-(1,2,48)
         77          3          6     -0.19224229                    1_GWF-(1,26,34)  9.03580500E-02                    1_GWF-(1,31,31)
         78          3          7     -0.16464764                    1_GWF-(1,26,33)  6.38315252E-02                    1_GWF-(1,31,31)
         79          3          8     -0.12527848                    1_GWF-(1,30,32)  4.00583248E-02                    1_GWF-(1,21,22)
         80          3          9 -8.77065390E-02                    1_GWF-(1,32,30)  4.71398486E-02                    1_GWF-(1,21,22)
         81          3         10 -6.01743068E-02                    1_GWF-(1,37,28)  3.75997614E-02                    1_GWF-(1,21,22)
         82          3         11 -5.24728231E-02                    1_GWF-(1,41,25)  3.19531705E-02                    1_GWF-(1,21,22)
         83          3         12 -4.89917760E-02                     1_GWF-(1,4,23)  2.41275034E-02                    1_GWF-(1,21,22)
         84          3         13 -4.27770523E-02                     1_GWF-(1,3,21)  1.82442709E-02                    1_GWF-(1,21,22)
         85          3         14 -3.88394748E-02                     1_GWF-(1,2,20)  1.16361538E-02                    1_GWF-(1,23,20)
         86          3         15  1.11924570E-02                    1_GWF-(1,22,21)  1.56411770E-02                    1_GWF-(1,22,21)
         87          3         16 -5.79903465E-02                    1_GWF-(1,26,18)  2.26666540E-02                    1_GWF-(1,22,21)
         88          3         17 -1.39575053E-02                    1_GWF-(1,22,21)  2.97338159E-03                    1_GWF-(1,22,21)
         89          3         18 -1.15742172E-02                    1_GWF-(1,23,20)  2.70364509E-03                    1_GWF-(1,22,21)
         90          3         19 -3.46992772E-03                    1_GWF-(1,22,21)  4.82220366E-04                    1_GWF-(1,21,22)
         91          3         20 -2.11376432E-03                    1_GWF-(1,22,21)  3.64888058E-04                    1_GWF-(1,21,22)
         92          3         21  5.03162207E-04                    1_GWF-(1,51,27)  7.21036882E-04                    1_GWF-(1,22,21)
         93          3         22 -4.65331083E-04                    1_GWF-(1,22,21)  2.48260096E-04                    1_GWF-(1,22,21)
         94          3         23 -2.54817322E-04                    1_GWF-(1,23,20)  2.66819098E-04                    1_GWF-(1,22,21)
         95          3         24 -1.68202844E-04                    1_GWF-(1,22,21)  1.10020099E-04                    1_GWF-(1,22,21)
         96          3         25 -1.85892966E-04                    1_GWF-(1,21,22)  1.17135858E-04                    1_GWF-(1,20,23)
         97          3         26 -1.21491459E-04                    1_GWF-(1,22,21)  6.61412332E-05                    1_GWF-(1,20,23)
         98          3         27 -5.51521720E-05                    1_GWF-(1,17,22)  6.54296672E-05                    1_GWF-(1,20,23)
         99          3         28 -3.29579613E-05                    1_GWF-(1,20,23)  2.80484422E-05                    1_GWF-(1,20,23)
        100          3         29  3.39753750E-05                    1_GWF-(1,50,27)  3.79069617E-05                    1_GWF-(1,20,23)
        101          3         30  2.72852270E-05                    1_GWF-(1,50,27)  1.90616065E-05                     1_GWF-(1,2,25)
        102          3         31 -1.42320293E-04                     1_GWF-(1,2,26)  8.99521750E-05                    1_GWF-(1,24,19)
        103          3         32 -1.33408420E-05                     1_GWF-(1,2,27)  6.30639293E-06                     1_GWF-(1,2,26)
        104          3         33 -3.49960824E-05                     1_GWF-(1,2,27)  2.50960162E-05                    1_GWF-(1,24,19)
        105          3         34 -1.30174628E-05                     1_GWF-(1,2,26)  2.47690049E-06                     1_GWF-(1,2,26)
        106          3         35  1.69270763E-05                    1_GWF-(1,50,26) -8.51282159E-06                    1_GWF-(1,23,20)
        107          3         36 -5.19179561E-06                     1_GWF-(1,1,26)  9.28455234E-07                     1_GWF-(1,2,24)
        108          3         37 -4.67030873E-06                     1_GWF-(1,2,26)  1.90927969E-06                    1_GWF-(1,22,21)
        109          3         38  1.54355698E-06                    1_GWF-(1,50,26)  3.82700734E-07                    1_GWF-(1,22,21)
        110          3         39 -1.96417865E-06                     1_GWF-(1,2,27)  1.67077027E-07                    1_GWF-(1,22,21)
        111          3         40 -5.44718958E-07                     1_GWF-(1,1,25) -8.44402194E-08                    1_GWF-(1,50,24)
        112          3         41  8.82692729E-08                     1_GWF-(1,2,27) -9.20319665E-08                    1_GWF-(1,50,24)
        113          3         42 -8.67668673E-07                     1_GWF-(1,2,28)  5.30452969E-08                    1_GWF-(1,22,21)
        114          3         43 -5.95593682E-08                     1_GWF-(1,2,27)  6.95490890E-09                     1_GWF-(1,2,17)
        115          3         44  5.38945466E-08                    1_GWF-(1,50,27)  1.95176598E-09                     1_GWF-(1,2,19)
        116          3         45  8.49909325E-10                     1_GWF-(1,1,21)  2.10556198E-09                     1_GWF-(1,2,19)
        117          4          1 -8.03514700E-02                    1_GWF-(1,51,50)  4.90563552E-02                    1_GWF-(1,49,47)
        118          4          2     -0.16276472                    1_GWF-(1,49,46)  4.45927211E-02                    1_GWF-(1,30,32)
        119          4          3     -0.19552626                    1_GWF-(1,26,42) -6.76942841E-02                     1_GWF-(1,2,48)
        120          4          4     -0.16377702                    1_GWF-(1,26,39) -5.15558315E-02                     1_GWF-(1,2,48)
        121          4          5     -0.14473614                    1_GWF-(1,26,35) -5.26688777E-02                     1_GWF-(1,2,48)
        122          4          6     -0.12236439                    1_GWF-(1,26,33)  3.19746361E-02                    1_GWF-(1,32,30)
        123          4          7 -9.78925678E-02                    1_GWF-(1,30,32) -2.80823659E-02                     1_GWF-(1,2,48)
        124          4          8 -7.15797237E-02                    1_GWF-(1,32,30) -1.76542192E-02                     1_GWF-(1,2,48)
        125          4          9 -5.10557788E-02                    1_GWF-(1,37,28)  1.79947625E-02                    1_GWF-(1,22,21)
        126          4         10 -4.01391841E-02                     1_GWF-(1,5,25)  1.77154510E-02                    1_GWF-(1,22,21)
        127          4         11 -3.87478947E-02                     1_GWF-(1,3,23)  1.68098582E-02                    1_GWF-(1,22,21)
        128          4         12 -3.45389764E-02                     1_GWF-(1,2,22)  1.28120580E-02                    1_GWF-(1,22,21)
        129          4         13 -2.68245120E-02                     1_GWF-(1,2,20)  1.13225184E-02                    1_GWF-(1,22,21)
        130          4         14 -1.98411216E-02                     1_GWF-(1,2,18)  1.05604833E-02                    1_GWF-(1,22,21)
        131          4         15 -1.58908861E-02                    1_GWF-(1,25,19)  8.62055087E-03                    1_GWF-(1,22,21)
        132          4         16 -1.30078539E-02                    1_GWF-(1,25,19)  4.74065691E-03                    1_GWF-(1,22,21)
        133          4         17 -7.89730875E-03                    1_GWF-(1,25,18)  1.22477875E-03                    1_GWF-(1,25,12)
        134          4         18 -5.93868800E-03                    1_GWF-(1,25,17)  8.84256493E-04                    1_GWF-(1,23,20)
        135          4         19 -1.04486140E-03                    1_GWF-(1,25,13)  2.53538129E-03                    1_GWF-(1,22,21)
        136          4         20 -1.81127570E-03                    1_GWF-(1,24,19)  7.10496934E-04                    1_GWF-(1,22,21)
        137          4         21 -9.56367552E-04                    1_GWF-(1,23,20)  9.09142406E-04                    1_GWF-(1,22,21)
        138          4         22 -4.17063865E-04                    1_GWF-(1,22,21)  3.68638368E-04                    1_GWF-(1,22,21)
        139          4         23 -3.71345204E-04                    1_GWF-(1,23,20)  3.79507651E-04                    1_GWF-(1,22,21)
        140          4         24 -3.27312599E-04                    1_GWF-(1,22,21)  9.64530804E-05                    1_GWF-(1,24,19)
        141          4         25 -3.27450665E-04                    1_GWF-(1,23,20)  7.35675954E-05                    1_GWF-(1,19,24)
        142          4         26  1.99037922E-04                    1_GWF-(1,22,21)  7.55677287E-05                    1_GWF-(1,20,23)
        143          4         27  1.00951613E-03                    1_GWF-(1,51,30) -6.88238382E-05                    1_GWF-(1,32,30)
        144          4         28 -4.70021789E-05                     1_GWF-(1,1,36) -2.18378741E-05                    1_GWF-(1,30,32)
        145          4         29 -4.89280465E-05                     1_GWF-(1,1,38)  3.09850682E-05                    1_GWF-(1,20,23)
        146          4         30 -1.56875889E-05                     1_GWF-(1,1,37) -9.62530105E-06                    1_GWF-(1,32,30)
        147          4         31 -1.85058970E-05                     1_GWF-(1,1,37)  1.32006461E-05                    1_GWF-(1,20,23)
        148          4         32 -2.09124917E-05                     1_GWF-(1,1,37)  5.51160484E-06                    1_GWF-(1,20,23)
        149          4         33 -2.09134560E-05                     1_GWF-(1,1,35)  8.61527807E-06                    1_GWF-(1,20,23)
        150          4         34 -2.02958794E-05                     1_GWF-(1,1,34)  6.20014213E-06                    1_GWF-(1,20,23)
        151          4         35  1.18990886E-05                    1_GWF-(1,50,28)  3.24470619E-06                    1_GWF-(1,20,23)
        152          4         36  2.31409568E-05                    1_GWF-(1,51,34)  1.00456127E-06                    1_GWF-(1,20,23)
        153          4         37 -7.02066291E-07                    1_GWF-(1,50,28) -8.23845092E-07                    1_GWF-(1,50,17)
        154          4         38  7.23631684E-06                    1_GWF-(1,50,27)  9.63967973E-07                    1_GWF-(1,22,21)
        155          4         39  1.99761242E-06                    1_GWF-(1,50,26)  6.06548782E-07                    1_GWF-(1,22,21)
        156          4         40  3.24969972E-06                    1_GWF-(1,50,25)  1.11918810E-07                    1_GWF-(1,22,21)
        157          4         41  5.69067542E-07                    1_GWF-(1,50,22)  1.78491650E-07                    1_GWF-(1,22,21)
        158          4         42  1.00316499E-06                    1_GWF-(1,50,24) -2.70630910E-08                     1_GWF-(1,2,38)
        159          4         43 -4.22030532E-07                    1_GWF-(1,50,28)  1.57219929E-08                    1_GWF-(1,29,33)
        160          4         44  2.44216215E-09                     1_GWF-(1,2,38)  1.08414100E-08                    1_GWF-(1,23,20)
        161          4         45  2.87668687E-08                    1_GWF-(1,50,21)  1.33983781E-08                    1_GWF-(1,22,21)
        162          4         46  2.45010303E-08                    1_GWF-(1,50,19)  9.00385019E-09                    1_GWF-(1,22,21)
        163          4         47  1.78716766E-08                    1_GWF-(1,50,18)  4.90561744E-09                     1_GWF-(1,2,15)
        164          4         48 -2.95586783E-09                    1_GWF-(1,50,18)  5.17777600E-09                     1_GWF-(1,2,15)
        165          4         49 -1.35212620E-08                     1_GWF-(1,2,17)  3.64380663E-09                     1_GWF-(1,2,14)
        166          4         50 -6.26268741E-09                     1_GWF-(1,2,16)  2.89798595E-09                     1_GWF-(1,2,14)
        167          4         51 -1.00628711E-08                     1_GWF-(1,2,16)  1.60647317E-09                     1_GWF-(1,2,13)
        168          4         52 -9.07547159E-10                     1_GWF-(1,2,16)  1.48795106E-09                     1_GWF-(1,2,13)
        169          5          1 -2.60939894E-02                    1_GWF-(1,51,44)  9.12287017E-03                    1_GWF-(1,32,30)
        170          5          2 -9.84395823E-02                    1_GWF-(1,26,41)  1.39307045E-02                    1_GWF-(1,32,30)
        171          5          3 -1.79745792E-02                    1_GWF-(1,26,33)  1.20103281E-02                    1_GWF-(1,32,30)
        172          5          4 -3.49202042E-02                    1_GWF-(1,27,33)  7.88532443E-03                    1_GWF-(1,32,30)
        173          5          5 -2.00819601E-02                    1_GWF-(1,31,31)  7.75495588E-03                    1_GWF-(1,22,21)
        174          5          6 -1.68866043E-02                    1_GWF-(1,32,30)  3.88611842E-03                    1_GWF-(1,22,21)
        175          5          7 -1.13085515E-02                    1_GWF-(1,40,27)  9.87752820E-03                    1_GWF-(1,22,21)
        176          5          8 -7.81043782E-03                    1_GWF-(1,43,26)  3.08975467E-03                    1_GWF-(1,22,21)
        177          5          9 -1.11824249E-02                     1_GWF-(1,2,22)  7.82593108E-03                    1_GWF-(1,22,21)
        178          5         10 -8.97261953E-03                     1_GWF-(1,2,23)  1.88224126E-03                    1_GWF-(1,22,21)
        179          5         11 -8.01071427E-03                     1_GWF-(1,2,21)  4.39663243E-03                    1_GWF-(1,22,21)
        180          5         12 -4.96547034E-03                     1_GWF-(1,2,21)  1.04060598E-03                    1_GWF-(1,22,21)
        181          5         13 -3.57526183E-03                    1_GWF-(1,23,20)  2.06476348E-03                    1_GWF-(1,22,21)
        182          5         14 -2.67597256E-03                    1_GWF-(1,22,21)  4.41457872E-04                    1_GWF-(1,22,21)
        183          5         15 -2.22002626E-03                    1_GWF-(1,25,18)  7.61006730E-04                    1_GWF-(1,22,21)
        184          5         16 -9.77930238E-04                    1_GWF-(1,22,21)  1.85791145E-04                    1_GWF-(1,22,21)
        185          5         17 -5.73752824E-04                    1_GWF-(1,23,20)  3.31085421E-04                    1_GWF-(1,22,21)
        186          5         18 -2.20333707E-04                    1_GWF-(1,22,21)  8.47301429E-05                    1_GWF-(1,22,21)
        187          5         19 -1.98351462E-04                    1_GWF-(1,23,20)  1.70113121E-04                    1_GWF-(1,22,21)
        188          5         20 -7.32955812E-05                    1_GWF-(1,22,21)  3.48448522E-05                    1_GWF-(1,22,21)
        189          5         21 -1.01242432E-04                    1_GWF-(1,23,20)  7.35775881E-05                    1_GWF-(1,22,21)
        190          5         22 -5.02825721E-05                    1_GWF-(1,22,21)  1.37040316E-05                    1_GWF-(1,22,21)
        191          5         23 -4.81313583E-05                    1_GWF-(1,21,22)  2.40095202E-05                    1_GWF-(1,22,21)
        192          5         24 -1.92160693E-05                    1_GWF-(1,20,23)  9.33309783E-06                    1_GWF-(1,20,23)
        193          5         25  1.45207299E-05                    1_GWF-(1,51,31)  1.42663735E-05                    1_GWF-(1,20,23)
        194          5         26  7.64530503E-06                    1_GWF-(1,50,30)  7.34786401E-06                    1_GWF-(1,20,23)
        195          5         27  1.06471395E-05                    1_GWF-(1,50,30)  9.85138373E-06                    1_GWF-(1,20,23)
        196          5         28  1.03259019E-05                    1_GWF-(1,50,30) -7.33297255E-06                    1_GWF-(1,32,30)
        197          5         29  1.02752719E-05                    1_GWF-(1,50,30) -7.16460220E-06                    1_GWF-(1,32,30)
        198          5         30  1.36990060E-05                    1_GWF-(1,50,30) -5.42860981E-06                    1_GWF-(1,32,30)
        199          5         31  1.49326555E-05                    1_GWF-(1,50,30) -5.88166089E-06                    1_GWF-(1,32,30)
        200          5         32 -1.14305330E-05                     1_GWF-(1,1,30) -3.49417989E-06                    1_GWF-(1,32,30)
        201          5         33 -1.19908948E-05                     1_GWF-(1,1,30) -3.81862367E-06                    1_GWF-(1,32,30)
        202          5         34 -1.04784290E-05                     1_GWF-(1,1,30) -1.90213522E-06                    1_GWF-(1,32,30)
        203          5         35 -1.08989809E-05                     1_GWF-(1,1,30) -1.74333839E-06                    1_GWF-(1,32,30)
        204          5         36 -7.39897239E-06                     1_GWF-(1,1,30) -7.39372161E-07                    1_GWF-(1,32,30)
        205          5         37 -4.85484495E-06                     1_GWF-(1,1,31) -5.16923371E-07                    1_GWF-(1,32,30)
        206          5         38 -3.32632017E-06                     1_GWF-(1,1,31) -1.69916117E-07                    1_GWF-(1,32,30)
        207          5         39 -1.46754389E-06                     1_GWF-(1,1,31) -1.08305237E-07                    1_GWF-(1,32,30)
        208          5         40 -5.91916398E-07                     1_GWF-(1,1,31) -3.35003928E-08                    1_GWF-(1,32,30)
        209          5         41 -2.60828831E-07                     1_GWF-(1,1,32) -1.90532790E-08                    1_GWF-(1,32,30)
        210          5         42 -1.10055191E-07                     1_GWF-(1,1,32)  7.28359204E-09                     1_GWF-(1,2,36)
        211          5         43  1.57669608E-08                     1_GWF-(1,1,32) -8.31635028E-09                    1_GWF-(1,33,29)
        212          5         44 -1.03078371E-08                     1_GWF-(1,2,35) -8.46155061E-09                    1_GWF-(1,32,30)
        213          5         45 -4.61285641E-08                     1_GWF-(1,2,34)  5.09441941E-09                     1_GWF-(1,2,36)
        214          5         46  4.93414211E-09                     1_GWF-(1,1,33)  5.31864370E-09                     1_GWF-(1,2,36)
        215          5         47 -3.80617526E-08                     1_GWF-(1,2,34)  3.35748218E-09                     1_GWF-(1,2,37)
        216          5         48 -1.19117998E-08                     1_GWF-(1,2,35)  2.70881604E-09                     1_GWF-(1,2,38)
        217          5         49 -6.58138757E-09                     1_GWF-(1,2,36)  2.33747490E-09                     1_GWF-(1,2,38)
        218          5         50 -5.25948039E-09                     1_GWF-(1,2,36)  2.02941214E-09                     1_GWF-(1,2,38)
        219          5         51 -4.12010631E-09                     1_GWF-(1,2,36)  1.78039476E-09                     1_GWF-(1,2,38)
        220          5         52 -2.55077708E-09                     1_GWF-(1,2,37)  1.62053745E-09                     1_GWF-(1,2,38)
        221          5         53 -1.12485238E-09                     1_GWF-(1,2,37) -1.57919278E-09                     1_GWF-(1,2,13)
        222          5         54 -3.74811983E-10                     1_GWF-(1,2,38) -1.55959046E-09                     1_GWF-(1,2,13)
        223          6          1 -8.44305158E-04                    1_GWF-(1,26,41)  4.69815929E-04                     1_GWF-(1,2,48)
        224          6          2 -1.70535888E-03                    1_GWF-(1,26,39)  6.14253258E-04                    1_GWF-(1,32,30)
        225          6          3 -1.83796315E-03                    1_GWF-(1,26,38)  6.75080208E-04                    1_GWF-(1,32,30)
        226          6          4 -1.07344363E-03                    1_GWF-(1,26,33)  5.54763821E-04                    1_GWF-(1,32,30)
        227          6          5 -6.08377594E-04                    1_GWF-(1,30,32)  3.83565528E-04                    1_GWF-(1,32,30)
        228          6          6 -4.62966148E-04                    1_GWF-(1,32,30)  2.22442882E-04                    1_GWF-(1,32,30)
        229          6          7 -4.19558279E-04                    1_GWF-(1,32,30)  1.62211567E-04                    1_GWF-(1,22,21)
        230          6          8 -4.35122149E-04                    1_GWF-(1,36,30)  1.72990147E-04                    1_GWF-(1,22,21)
        231          6          9 -3.62043607E-04                    1_GWF-(1,38,29)  1.71224221E-04                    1_GWF-(1,22,21)
        232          6         10 -2.70263996E-04                     1_GWF-(1,4,27)  1.49069960E-04                    1_GWF-(1,22,21)
        233          6         11 -2.51986577E-04                     1_GWF-(1,2,26)  1.25297012E-04                    1_GWF-(1,22,21)
        234          6         12 -2.61046584E-04                     1_GWF-(1,1,25)  1.11246126E-04                    1_GWF-(1,22,21)
        235          6         13 -2.66892828E-04                     1_GWF-(1,1,23)  8.13414148E-05                    1_GWF-(1,22,21)
        236          6         14 -2.53279251E-04                     1_GWF-(1,1,22)  6.37889311E-05                    1_GWF-(1,22,21)
        237          6         15 -1.77137304E-04                     1_GWF-(1,1,21)  3.42158240E-05                    1_GWF-(1,22,21)
        238          6         16 -1.00531464E-04                    1_GWF-(1,24,19)  2.70872225E-05                    1_GWF-(1,22,21)
        239          6         17 -5.32432465E-05                    1_GWF-(1,24,19)  1.67315012E-05                    1_GWF-(1,20,23)
        240          6         18 -3.39961297E-05                    1_GWF-(1,24,19)  1.80260938E-05                    1_GWF-(1,20,23)
        241          6         19 -1.83515613E-05                    1_GWF-(1,25,18)  9.38238240E-06                    1_GWF-(1,20,23)
        242          6         20 -1.47959499E-05                    1_GWF-(1,24,19)  9.79940024E-06                    1_GWF-(1,20,23)
        243          6         21 -1.09063041E-05                    1_GWF-(1,23,20)  4.20370269E-06                    1_GWF-(1,20,23)
        244          6         22 -8.08303950E-06                    1_GWF-(1,24,19)  4.60956203E-06                    1_GWF-(1,20,23)
        245          6         23 -7.05139592E-06                    1_GWF-(1,23,20)  1.25191812E-06                    1_GWF-(1,23,20)
        246          6         24  6.97828279E-06                    1_GWF-(1,51,36)  3.30349431E-07                     1_GWF-(1,2,11)
        247          6         25  9.13287209E-08                     1_GWF-(1,2,18)  3.38520386E-07                     1_GWF-(1,2,11)
        248          6         26 -1.48062935E-06                     1_GWF-(1,4,16)  5.62284079E-07                    1_GWF-(1,20,23)
        249          6         27 -2.03249708E-06                     1_GWF-(1,2,38)  3.70862713E-07                    1_GWF-(1,23,20)
        250          6         28 -3.95963953E-08                    1_GWF-(1,23,20)  1.94815525E-07                     1_GWF-(1,2,25)
        251          6         29 -2.98211095E-07                     1_GWF-(1,1,26)  1.59182589E-07                     1_GWF-(1,2,25)
        252          6         30 -1.25677511E-06                     1_GWF-(1,1,27)  1.00006142E-07                     1_GWF-(1,2,40)
        253          6         31 -1.59594594E-08                    1_GWF-(1,21,22)  1.93293217E-07                    1_GWF-(1,22,21)
        254          6         32 -3.70132846E-07                     1_GWF-(1,1,41)  9.04963310E-08                    1_GWF-(1,22,21)
        255          6         33  2.24749699E-08                    1_GWF-(1,50,30)  9.02612897E-08                    1_GWF-(1,21,22)
        256          6         34  1.98463871E-07                    1_GWF-(1,50,31)  1.99947100E-07                    1_GWF-(1,22,21)
        257          6         35 -6.59123149E-08                     1_GWF-(1,2,31)  7.20542133E-08                    1_GWF-(1,21,22)
        258          6         36  4.40395227E-08                     1_GWF-(1,1,31)  5.13442327E-08                     1_GWF-(1,2,26)
        259          6         37 -6.42908422E-07                     1_GWF-(1,2,31)  2.53418666E-08                     1_GWF-(1,3,33)
        260          6         38  3.17872434E-07                     1_GWF-(1,1,31)  3.71513837E-08                     1_GWF-(1,3,31)
        261          6         39 -9.54622561E-08                     1_GWF-(1,2,31)  3.55536316E-08                    1_GWF-(1,20,31)
        262          6         40 -2.24087594E-07                     1_GWF-(1,1,31)  2.32010650E-08                     1_GWF-(1,2,24)
        263          6         41 -2.48387054E-07                     1_GWF-(1,1,31)  1.34196741E-08                     1_GWF-(1,2,25)
        264          6         42 -9.97644954E-07                     1_GWF-(1,1,30) -4.41888877E-08                    1_GWF-(1,20,31)
        265          6         43  7.97966654E-07                     1_GWF-(1,1,30)  5.07853674E-09                     1_GWF-(1,2,25)
        266          6         44  1.98464539E-08                     1_GWF-(1,2,30)  5.92344818E-09                     1_GWF-(1,2,26)
        267          6         45 -3.48480666E-08                     1_GWF-(1,1,30)  4.44095988E-09                     1_GWF-(1,2,25)
        268          6         46 -1.50808861E-08                     1_GWF-(1,1,30)  3.80036077E-09                     1_GWF-(1,2,25)
        269          6         47 -7.53706151E-10                     1_GWF-(1,1,30)  3.76840837E-09                     1_GWF-(1,2,25)
        270          7          1 -1.66215001E-06                    1_GWF-(1,26,40)  6.72365219E-07                     1_GWF-(1,2,48)
        271          7          2 -1.66385603E-06                    1_GWF-(1,26,39)  7.29718849E-07                    1_GWF-(1,32,30)
        272          7          3 -1.89030239E-06                    1_GWF-(1,26,37)  1.02180092E-06                    1_GWF-(1,32,30)
        273          7          4 -1.70582031E-06                    1_GWF-(1,26,33)  7.41196816E-07                    1_GWF-(1,32,30)
        274          7          5 -1.07731663E-06                    1_GWF-(1,26,33)  6.53277740E-07                    1_GWF-(1,32,30)
        275          7          6 -6.04034773E-07                    1_GWF-(1,30,32)  2.96452603E-07                    1_GWF-(1,32,30)
        276          7          7 -4.85521780E-07                    1_GWF-(1,32,30)  2.39921222E-07                    1_GWF-(1,22,21)
        277          7          8 -4.82996615E-07                    1_GWF-(1,35,31)  1.73928520E-07                    1_GWF-(1,22,21)
        278          7          9 -4.38135508E-07                    1_GWF-(1,37,31)  1.92008444E-07                    1_GWF-(1,22,21)
        279          7         10 -3.71310229E-07                    1_GWF-(1,10,30)  1.37256364E-07                    1_GWF-(1,22,21)
        280          7         11 -3.01328604E-07                     1_GWF-(1,2,29)  1.69298024E-07                    1_GWF-(1,22,21)
        281          7         12 -3.51782113E-07                     1_GWF-(1,1,29)  1.49218126E-07                    1_GWF-(1,22,21)
        282          7         13 -2.13840464E-07                     1_GWF-(1,1,27)  5.99312378E-08                    1_GWF-(1,22,21)
        283          7         14 -2.55438760E-06                     1_GWF-(1,1,27) -1.38055077E-07                    1_GWF-(1,22,21)
        284          7         15  1.63452952E-06                     1_GWF-(1,1,27)  1.26873914E-07                    1_GWF-(1,21,22)
        285          7         16  1.47603640E-06                     1_GWF-(1,1,27)  7.24596374E-08                     1_GWF-(1,2,18)
        286          7         17 -1.18861242E-06                     1_GWF-(1,1,26)  2.83348062E-08                    1_GWF-(1,22,21)
        287          7         18 -1.24572683E-07                     1_GWF-(1,2,25)  3.38957354E-08                    1_GWF-(1,22,21)
        288          7         19 -1.68545578E-07                     1_GWF-(1,2,26)  1.14508446E-08                    1_GWF-(1,22,21)
        289          7         20 -1.16938819E-07                     1_GWF-(1,2,25)  4.99293506E-09                    1_GWF-(1,25,18)
        290          7         21 -4.02867334E-09                     1_GWF-(1,2,25)  4.82032748E-09                    1_GWF-(1,25,17)
        291          7         22  1.02939551E-08                     1_GWF-(1,1,28)  4.87347131E-09                    1_GWF-(1,25,18)
        292          7         23  4.70760192E-09                     1_GWF-(1,1,32)  4.75203255E-09                    1_GWF-(1,25,18)
        293          7         24  1.13960354E-09                     1_GWF-(1,1,37)  4.62027604E-09                    1_GWF-(1,25,18)
        294          7         25 -7.06866949E-10                    1_GWF-(1,25,18)  4.54124997E-09                    1_GWF-(1,25,18)
        295          8          1 -1.77844426E-08                    1_GWF-(1,25,18)  2.57130578E-09                    1_GWF-(1,25,18)
        296          8          2 -2.70946464E-08                    1_GWF-(1,25,18)  1.57482502E-09                     1_GWF-(1,2,22)
        297          8          3 -6.70158533E-10                    1_GWF-(1,24,19)  1.59194664E-09                     1_GWF-(1,2,23)
        298          9          1 -2.27808602E-09                     1_GWF-(1,2,36)  1.53955903E-09                     1_GWF-(1,2,27)
        299          9          2 -1.30735217E-08                     1_GWF-(1,3,35)  2.34866049E-09                    1_GWF-(1,26,34)
        300          9          3 -1.40897792E-09                     1_GWF-(1,1,32)  2.48098496E-09                    1_GWF-(1,26,34)
        301          9          4 -5.24036822E-10                     1_GWF-(1,1,32)  2.41336322E-09                    1_GWF-(1,26,34)
        302         10          1 -2.72363839E-09                    1_GWF-(1,26,36)  1.63093018E-09                    1_GWF-(1,29,33)
        303         10          2 -7.85169905E-09                    1_GWF-(1,26,37)  1.20262570E-09                    1_GWF-(1,36,38)
        304         10          3 -9.18329230E-10                    1_GWF-(1,26,39)  1.27432928E-09                    1_GWF-(1,34,25)
        305         11          1 -8.89392365E-10                    1_GWF-(1,36,38)  1.13806318E-09                    1_GWF-(1,32,30)
 --------------------------------------------------------------------------------------------------------------------------------------



 MEMORY MANAGER TOTAL STORAGE BY DATA TYPE, IN MEGABYTES
 -------------------------------
                    ALLOCATED   
 DATA TYPE           MEMORY     
 -------------------------------
 Character        7.45500000E-03
 Logical          4.80000000E-05
 Integer          3.4826040     
 Real             5.2509360     
 -------------------------------
 Total            8.7410430     
 Virtual          0.0000000     
 -------------------------------


 
 Run end date and time (yyyy/mm/dd hh:mm:ss): 2025/05/12  7:13:39
 Elapsed run time:  0.171 Seconds
 Normal termination of simulation.
