                                   MODFLOW 6
                U.S. GEOLOGICAL SURVEY MODULAR HYDROLOGIC MODEL
                            VERSION 6.6.0 12/20/2024

   MODFLOW 6 compiled Dec 31 2024 17:10:16 with Intel(R) Fortran Intel(R) 64
   Compiler Classic for applications running on Intel(R) 64, Version 2021.7.0
                             Build 20220726_000000

This software has been approved for release by the U.S. Geological 
Survey (USGS). Although the software has been subjected to rigorous 
review, the USGS reserves the right to update the software as needed 
pursuant to further analysis and review. No warranty, expressed or 
implied, is made by the USGS or the U.S. Government as to the 
functionality of the software and related material nor shall the 
fact of release constitute any such warranty. Furthermore, the 
software is released on condition that neither the USGS nor the U.S. 
Government shall be held liable for any damages resulting from its 
authorized or unauthorized use. Also refer to the USGS Water 
Resources Software User Rights Notice for complete use, copyright, 
and distribution information.


As a work of the United States Government, this USGS product is 
in the public domain within the United States. You can copy, 
modify, distribute, and perform the work, even for commercial 
purposes, all without asking permission. Additionally, USGS 
waives copyright and related rights in the work worldwide 
through CC0 1.0 Universal Public Domain Dedication 
(https://creativecommons.org/publicdomain/zero/1.0/).

The following GNU Lesser General Public License (LGPL) libraries
are used in this USGS product:

    SPARSKIT version 2.0
      ilut, luson, and qsplit 
      (https://www-users.cse.umn.edu/~saad/software/SPARSKIT/)

    RCM - Reverse Cuthill McKee Ordering
      (https://people.math.sc.edu/Burkardt/f_src/rcm/rcm.html)

    BLAS - Basic Linear Algebra Subprograms Level 1
      (https://people.math.sc.edu/Burkardt/f_src/blas1_d/blas1_d.html)

    SPARSEKIT - Sparse Matrix Utility Package
      amux, dperm, dvperm, rperm, and cperm
      (https://people.sc.fsu.edu/~jburkardt/f77_src/sparsekit/sparsekit.html)

The following BSD-3 License libraries are used in this USGS product:

    Modern Fortran DAG Library
      Copyright (c) 2018, Jacob Williams
      All rights reserved.
      (https://github.com/jacobwilliams/daglib)

MODFLOW 6 compiler options: /O2 /heap-arrays:0 /fpe:0 /traceback /nologo /fpp
/c /module:win64\mod_mf6\ /object:win64\obj_mf6\

System command used to initiate simulation:
C:\Users\gross.DESKTOP-AIRQM2M\anaconda3\envs\pyclass\Scripts\mf6.exe

MODFLOW was compiled using uniform precision.

Real Variables
  KIND: 8
  TINY (smallest non-zero value):    2.225074-308
  HUGE (largest value):    1.797693+308
  PRECISION: 15
  SIZE IN BITS: 64

Integer Variables
  KIND: 4
  HUGE (largest value): 2147483647
  SIZE IN BITS: 32

Long Integer Variables
  KIND: 8
  HUGE (largest value): 9223372036854775807
  SIZE IN BITS: 64

Logical Variables
  KIND: 4
  SIZE IN BITS: 32
 

 OPENED mfsim.nam
 FILE TYPE:NAM6               UNIT 1001   STATUS:OLD                 
 FORMAT:FORMATTED              ACCESS:SEQUENTIAL          
 ACTION:READ                

 # pleasant model version 0+unknown
 # File generated by Flopy version 3.3.6 on 09/23/2022 at 20:46:56.
 # via modflow-setup version 0.post363+gbfd5835 at 2022-09-23 20:46:56

 OPENED pleasant.tdis
 FILE TYPE:TDIS6              UNIT 1002   STATUS:OLD                 
 FORMAT:FORMATTED              ACCESS:SEQUENTIAL          
 ACTION:READ                

 # pleasant model version 0+unknown
 # File generated by Flopy version 3.3.6 on 09/23/2022 at 20:46:56.
 # via modflow-setup version 0.post363+gbfd5835 at 2022-09-23 20:46:56
 # perlen nstp tsmult

 OPENED pleasant.nam
 FILE TYPE:GWF6               UNIT 1003   STATUS:OLD                 
 FORMAT:FORMATTED              ACCESS:SEQUENTIAL          
 ACTION:READ                

 # pleasant model version 0+unknown
 # File generated by Flopy version 3.3.6 on 09/23/2022 at 20:46:56.
 # via modflow-setup version 0.post363+gbfd5835 at 2022-09-23 20:46:56

 OPENED pleasant.dis
 FILE TYPE:DIS6               UNIT 1004   STATUS:OLD                 
 FORMAT:FORMATTED              ACCESS:SEQUENTIAL          
 ACTION:READ                

 # pleasant model version 0+unknown
 # File generated by Flopy version 3.3.6 on 09/23/2022 at 20:46:56.
 # via modflow-setup version 0.post363+gbfd5835 at 2022-09-23 20:46:56

 OPENED pleasant.npf
 FILE TYPE:NPF6               UNIT 1014   STATUS:OLD                 
 FORMAT:FORMATTED              ACCESS:SEQUENTIAL          
 ACTION:READ                

 # pleasant model version 0+unknown
 # File generated by Flopy version 3.3.6 on 09/23/2022 at 20:46:56.
 # via modflow-setup version 0.post363+gbfd5835 at 2022-09-23 20:46:56

 OPENED pleasant.sto
 FILE TYPE:STO6               UNIT 1023   STATUS:OLD                 
 FORMAT:FORMATTED              ACCESS:SEQUENTIAL          
 ACTION:READ                

 # pleasant model version 0+unknown
 # File generated by Flopy version 3.3.6 on 09/23/2022 at 20:46:56.
 # via modflow-setup version 0.post363+gbfd5835 at 2022-09-23 20:46:56

 OPENED pleasant.ic
 FILE TYPE:IC6                UNIT 1032   STATUS:OLD                 
 FORMAT:FORMATTED              ACCESS:SEQUENTIAL          
 ACTION:READ                

 # pleasant model version 0+unknown
 # File generated by Flopy version 3.3.6 on 09/23/2022 at 20:46:56.
 # via modflow-setup version 0.post363+gbfd5835 at 2022-09-23 20:46:56

 OPENED pleasant.oc
 FILE TYPE:OC6       UNIT 1037   STATUS:OLD                 
 FORMAT:FORMATTED              ACCESS:SEQUENTIAL          
 ACTION:READ                


 OPENED pleasant.obs
 FILE TYPE:OBS6      UNIT 1038   STATUS:OLD                 
 FORMAT:FORMATTED              ACCESS:SEQUENTIAL          
 ACTION:READ                


 OPENED pleasant.wel
 FILE TYPE:WEL6               UNIT 1039   STATUS:OLD                 
 FORMAT:FORMATTED              ACCESS:SEQUENTIAL          
 ACTION:READ                

 # pleasant model version 0+unknown
 # File generated by Flopy version 3.3.6 on 09/23/2022 at 20:46:56.
 # via modflow-setup version 0.post363+gbfd5835 at 2022-09-23 20:46:56

 OPENED pleasant.rcha
 FILE TYPE:RCH6               UNIT 1041   STATUS:OLD                 
 FORMAT:FORMATTED              ACCESS:SEQUENTIAL          
 ACTION:READ                

 # pleasant model version 0+unknown
 # File generated by Flopy version 3.3.6 on 09/23/2022 at 20:46:56.
 # via modflow-setup version 0.post363+gbfd5835 at 2022-09-23 20:46:56

 OPENED pleasant.chd
 FILE TYPE:CHD6               UNIT 1042   STATUS:OLD                 
 FORMAT:FORMATTED              ACCESS:SEQUENTIAL          
 ACTION:READ                

 # pleasant model version 0+unknown
 # File generated by Flopy version 3.3.6 on 09/23/2022 at 20:46:56.
 # via modflow-setup version 0.post363+gbfd5835 at 2022-09-23 20:46:56

 OPENED pleasant.sfr
 FILE TYPE:SFR6      UNIT 1043   STATUS:OLD                 
 FORMAT:FORMATTED              ACCESS:SEQUENTIAL          
 ACTION:READ                


 OPENED pleasant.lak
 FILE TYPE:LAK6      UNIT 1044   STATUS:OLD                 
 FORMAT:FORMATTED              ACCESS:SEQUENTIAL          
 ACTION:READ                


 READING SIMULATION OPTIONS
    MAXIMUM NUMBER OF ERRORS THAT WILL BE STORED IS 1000
 END OF SIMULATION OPTIONS

 READING SIMULATION TIMING

 TDIS -- TEMPORAL DISCRETIZATION PACKAGE,
 VERSION 1 : 11/13/2014 - INPUT READ FROM MEMPATH: __INPUT__/SIM/TDIS                                
 PROCESSING TDIS OPTIONS
    SIMULATION TIME UNIT IS DAYS
    SIMULATION STARTING DATE AND TIME IS 2012-01-01                    
 END OF TDIS OPTIONS
 PROCESSING TDIS DIMENSIONS
   13 STRESS PERIOD(S) IN SIMULATION
 END OF TDIS DIMENSIONS
 PROCESSING TDIS PERIODDATA


 STRESS PERIOD     LENGTH       TIME STEPS     MULTIPLIER FOR DELT
 ----------------------------------------------------------------------------
        1         1.000000          1                    1.000
        2         31.00000          1                    1.500
        3         29.00000          1                    1.500
        4         31.00000          1                    1.500
        5         30.00000          1                    1.500
        6         31.00000          1                    1.500
        7         30.00000          1                    1.500
        8         31.00000          1                    1.500
        9         31.00000          1                    1.500
       10         30.00000          1                    1.500
       11         31.00000          1                    1.500
       12         30.00000          1                    1.500
       13         31.00000          1                    1.500
 END OF TDIS PERIODDATA
 END OF SIMULATION TIMING

 READING SIMULATION MODELS
    GWF6 model 1 will be created
 END OF SIMULATION MODELS

 READING SIMULATION EXCHANGES
 END OF SIMULATION EXCHANGES

 READING SOLUTIONGROUP

 Creating solution: SLN_1           

 OPENED pleasant.ims
 FILE TYPE:IMS   UNIT 1046   STATUS:OLD                 
 FORMAT:FORMATTED              ACCESS:SEQUENTIAL          
 ACTION:READ                

 END OF SOLUTIONGROUP

PROCESSING MODEL CONNECTIONS

 OPENED ./external/wel_000.dat
 FILE TYPE:OPEN/CLOSE   UNIT 1054   STATUS:OLD                 
 FORMAT:FORMATTED              ACCESS:SEQUENTIAL          
 ACTION:READ                


 OPENED ./external/chd_000.dat
 FILE TYPE:OPEN/CLOSE   UNIT 1055   STATUS:OLD                 
 FORMAT:FORMATTED              ACCESS:SEQUENTIAL          
 ACTION:READ                


 IMS -- ITERATIVE MODEL SOLUTION PACKAGE, VERSION 6, 4/28/2017
         INPUT READ FROM UNIT 1046
 # pleasant model version 0+unknown
 # File generated by Flopy version 3.3.6 on 09/23/2022 at 20:46:56.
 # via modflow-setup version 0.post363+gbfd5835 at 2022-09-23 20:46:56

 PROCESSING IMS OPTIONS
 MODERATE OPTION:
 DEFAULT SOLVER INPUT VALUES REFLECT MODERATELY NONLINEAR MODEL
 END OF IMS OPTIONS

 PROCESSING IMS NONLINEAR
 END OF IMS NONLINEAR DATA
 **UNDER-RELAXATION WILL BE USED***
 

 PROCESSING LINEAR DATA
 END OF LINEAR DATA
 ***IMS LINEAR SOLVER WILL BE USED***

 IMSLINEAR -- UNSTRUCTURED LINEAR SOLUTION PACKAGE, VERSION 8, 04/28/2017
 An asymmetric matrix will be solved

 OUTER ITERATION CONVERGENCE CRITERION    (DVCLOSE) =    0.100000E-01
 MAXIMUM NUMBER OF OUTER ITERATIONS        (MXITER) = 200
 SOLVER PRINTOUT INDEX                     (IPRIMS) = 2
 NONLINEAR ITERATION METHOD            (NONLINMETH) = 3
 LINEAR SOLUTION METHOD                   (LINMETH) = 1
 UNDER-RELAXATION WEIGHT REDUCTION FACTOR   (THETA) =    0.900000E+00
 UNDER-RELAXATION WEIGHT INCREASE INCREMENT (KAPPA) =    0.100000E-03
 UNDER-RELAXATION PREVIOUS HISTORY FACTOR   (GAMMA) =    0.000000E+00
 UNDER-RELAXATION MOMENTUM TERM         (AMOMENTUM) =    0.000000E+00

       SOLUTION BY THE BICONJUGATE-GRADIENT STABILIZED METHOD
 ------------------------------------------------------------------
 MAXIMUM OF 200 CALLS OF SOLUTION ROUTINE
 MAXIMUM OF 100 INTERNAL ITERATIONS PER CALL TO SOLUTION ROUTINE
 LINEAR ACCELERATION METHOD            = BCGS      
 MATRIX PRECONDITIONING TYPE           = MOD. INCOMPLETE LU  
 MATRIX SCALING APPROACH               = NO SCALING          
 MATRIX REORDERING APPROACH            = ORIGINAL ORDERING        
 NUMBER OF ORTHOGONALIZATIONS          = 0
 HEAD CHANGE CRITERION FOR CLOSURE     =    0.10000E-03
 RESIDUAL CHANGE CRITERION FOR CLOSURE =    0.10000E-03
 RESIDUAL CONVERGENCE OPTION           = 3
 RESIDUAL CONVERGENCE NORM             = RELATIVE L2NORM 
 RELAXATION FACTOR                     =    0.97000E+00



 
    Solving:  Stress period:     1    Time step:     1
 
1
 STRESS PERIOD NO. 1, LENGTH =   1.000000    
 ------------------------------------------
 NUMBER OF TIME STEPS = 1
 MULTIPLIER FOR DELT =     1.000
 #k i j q boundname

 OPENED ./external/wel_001.dat
 FILE TYPE:OPEN/CLOSE   UNIT 1063   STATUS:OLD                 
 FORMAT:FORMATTED              ACCESS:SEQUENTIAL          
 ACTION:READ                

 #k i j head boundname

 OPENED ./external/chd_001.dat
 FILE TYPE:OPEN/CLOSE   UNIT 1066   STATUS:OLD                 
 FORMAT:FORMATTED              ACCESS:SEQUENTIAL          
 ACTION:READ                

 INITIAL TIME STEP SIZE =   1.000000    



 PSEUDO-TRANSIENT CONTINUATION WILL BE APPLIED TO MODEL 1 ("PLEASANT") DURING THIS TIME STEP

 SLN_1 OUTER ITERATION SUMMARY
 ----------------------------------------------------------------------------------------------------------
                                OUTER      INNER                    STEP   MAXIMUM CHANGE MODEL-(CELLID) OR
 OUTER ITERATION STEP       ITERATION  ITERATION  MAXIMUM CHANGE SUCCESS             MODEL-PACKAGE-(NUMBER)
 ----------------------------------------------------------------------------------------------------------
 Model                              1         14      0.90385763                            1_GWF-(2,35,40)
 Model                              2         14     -0.12616725                            1_GWF-(3,52,53)
 Model                              3         14  9.29121110E-02                            1_GWF-(2,33,34)
 Model                              4         14  7.76872576E-02                            1_GWF-(2,33,34)
 Model                              5         14  6.56025233E-02                            1_GWF-(2,33,34)
 Model                              6         13  5.55380328E-02                            1_GWF-(2,33,34)
 Model                              7         13  4.70451021E-02                            1_GWF-(2,33,34)
 Model                              8         13  3.98504301E-02                            1_GWF-(2,33,34)
 Model                              9         13  3.37515728E-02                            1_GWF-(2,33,34)
 Model                             10         12  2.85768527E-02                            1_GWF-(2,33,34)
 Model                             11         12  2.41948209E-02                            1_GWF-(2,33,34)
 Model                             12         12  2.04864002E-02                            1_GWF-(2,33,34)
 Model                             13         12  1.73430732E-02                            1_GWF-(2,33,34)
 Model                             14         12  1.46792510E-02                            1_GWF-(2,33,34)
 Model                             15         12  1.24247748E-02                            1_GWF-(2,33,34)
 Model                             16         11  1.05133291E-02                            1_GWF-(2,33,34)
 Model                             17         11  8.89837462E-03       *                    1_GWF-(2,33,34)
 Package                           17            -8.84084374E-03       *              1_GWF-LAK_0-(1)-stage
 ----------------------------------------------------------------------------------------------------------


 17 CALLS TO NUMERICAL SOLUTION IN TIME STEP 1 STRESS PERIOD 1
 216 TOTAL ITERATIONS

 SLN_1 INNER ITERATION SUMMARY
 --------------------------------------------------------------------------------------------------------------------------------------
      TOTAL      OUTER      INNER                                                            MAXIMUM                                   
  ITERATION  ITERATION  ITERATION  MAXIMUM CHANGE      MAXIMUM CHANGE MODEL-(CELLID)        RESIDUAL    MAXIMUM RESIDUAL MODEL-(CELLID)
 --------------------------------------------------------------------------------------------------------------------------------------
          1          1          1     -0.96839079                    1_GWF-(4,25,55)      -416.72957                    1_GWF-(1,47,36)
          2          1          2      0.34060608                    1_GWF-(2,47,36)      -102.75989                    1_GWF-(1,47,36)
          3          1          3      0.10357925                    1_GWF-(4,25,55)      -46.757175                    1_GWF-(1,47,36)
          4          1          4  5.12801309E-02                    1_GWF-(2,48,36)      -7.4677478                    1_GWF-(1,31,61)
          5          1          5  2.19444226E-02                    1_GWF-(1,38,53)      -4.8642643                    1_GWF-(1,31,61)
          6          1          6  2.23642885E-02                    1_GWF-(1,38,53)      -3.3064771                    1_GWF-(1,59,29)
          7          1          7  1.94094718E-02                    1_GWF-(1,38,53)      -2.2744508                    1_GWF-(1,31,54)
          8          1          8  2.08962011E-02                    1_GWF-(1,38,54)      -1.2966129                    1_GWF-(1,31,54)
          9          1          9  1.62109692E-02                    1_GWF-(1,38,54)     -0.55351827                    1_GWF-(1,31,54)
         10          1         10  8.75710117E-03                    1_GWF-(1,38,54)     -0.36095067                    1_GWF-(1,59,29)
         11          1         11  3.47873298E-03                    1_GWF-(1,38,53)     -0.18993128                    1_GWF-(1,59,29)
         12          1         12  1.90862124E-03                    1_GWF-(1,18,49)     -0.15270442                    1_GWF-(1,59,29)
         13          1         13  1.68479655E-03                    1_GWF-(1,17,49)     -0.19278866                    1_GWF-(1,59,29)
         14          1         14  1.33095548E-03                    1_GWF-(1,17,49) -4.37691467E-02                    1_GWF-(1,59,29)
         15          2          1     -0.11686101                    1_GWF-(3,52,53)      -16.527218                    1_GWF-(3,35,40)
         16          2          2  5.27656110E-02                    1_GWF-(1,51,37)      -8.8062380                    1_GWF-(3,35,40)
         17          2          3  1.61402764E-02                    1_GWF-(1,51,37)      -3.4024785                    1_GWF-(3,35,40)
         18          2          4  1.33369895E-02                    1_GWF-(1,51,37)      -1.1179895                    1_GWF-(3,35,40)
         19          2          5  7.55504548E-03                    1_GWF-(1,42,33)     -0.93831391                    1_GWF-(1,59,29)
         20          2          6  6.60028317E-03                    1_GWF-(1,43,40)     -0.45937154                    1_GWF-(3,37,33)
         21          2          7  9.79830258E-03                    1_GWF-(3,51,25)     -0.63902076                    1_GWF-(1,59,29)
         22          2          8  5.16969208E-03                    1_GWF-(3,51,25)     -0.12121278                    1_GWF-(1,31,54)
         23          2          9  6.46676048E-03                    1_GWF-(3,51,25)     -0.13078937                    1_GWF-(1,59,29)
         24          2         10  1.59105702E-03                    1_GWF-(3,51,25) -3.36766753E-02                    1_GWF-(3,35,40)
         25          2         11  7.92706033E-04                    1_GWF-(3,51,25)  3.94527779E-02                    1_GWF-(2,52,40)
         26          2         12  2.91999442E-04                    1_GWF-(2,26,20)  1.26096237E-02                    1_GWF-(2,52,40)
         27          2         13  2.02313426E-04                    1_GWF-(2,20,19)  2.84344769E-02                    1_GWF-(2,52,40)
         28          2         14 -5.91999992E-05                    1_GWF-(1,51,37)  6.05779343E-03                    1_GWF-(2,52,40)
         29          3          1  8.43917368E-02                    1_GWF-(2,33,34)       5.1959373                    1_GWF-(1,37,35)
         30          3          2  2.34745960E-02                    1_GWF-(1,39,40)      -1.6231888                    1_GWF-(2,38,33)
         31          3          3  9.20515242E-03                    1_GWF-(1,40,39)      -1.0724438                    1_GWF-(2,36,34)
         32          3          4  9.96622994E-03                    1_GWF-(1,39,40)      0.75401797                    1_GWF-(1,39,40)
         33          3          5  4.39480139E-03                    1_GWF-(1,40,39)     -0.54094089                    1_GWF-(2,36,34)
         34          3          6  7.71031750E-03                    1_GWF-(3,48,29)     -0.23785819                    1_GWF-(2,46,36)
         35          3          7  6.67098905E-03                    1_GWF-(3,51,25)     -0.12933265                    1_GWF-(2,46,36)
         36          3          8  2.98883265E-03                    1_GWF-(3,51,25)     -0.14915661                    1_GWF-(2,46,36)
         37          3          9 -2.45476154E-02                    1_GWF-(3,51,25)     -0.62086593                    1_GWF-(2,46,36)
         38          3         10  2.86626759E-02                    1_GWF-(3,51,25)  4.22569288E-02                    1_GWF-(1,47,36)
         39          3         11  6.81010222E-04                    1_GWF-(3,51,25)  9.12792053E-03                    1_GWF-(2,47,37)
         40          3         12  2.20218697E-04                    1_GWF-(2,25,21)  1.41284953E-02                    1_GWF-(2,47,37)
         41          3         13  1.61476153E-04                    1_GWF-(2,23,21)  9.90455419E-03                    1_GWF-(2,47,37)
         42          3         14  7.37148763E-05                    1_GWF-(2,22,21)  3.15298581E-03                    1_GWF-(2,47,37)
         43          4          1  7.05083567E-02                    1_GWF-(2,33,34)       4.7772011                    1_GWF-(3,35,40)
         44          4          2  2.07767198E-02                    1_GWF-(1,39,40)       1.9818415                    1_GWF-(3,35,40)
         45          4          3  4.98527727E-03                    1_GWF-(1,40,39)     -0.86327565                    1_GWF-(2,58,29)
         46          4          4  9.17904263E-03                    1_GWF-(1,41,39)     -0.83355297                    1_GWF-(2,46,36)
         47          4          5  2.01082677E-02                    1_GWF-(1,39,40)      -1.5640162                    1_GWF-(1,59,29)
         48          4          6 -1.29134460E-02                    1_GWF-(1,39,40)     -0.22146436                    1_GWF-(1,39,40)
         49          4          7     -0.11100689                    1_GWF-(3,51,25)      -3.6557618                    1_GWF-(2,58,29)
         50          4          8      0.11752648                    1_GWF-(3,51,25)     -0.13838510                    1_GWF-(2,58,29)
         51          4          9  1.44114499E-03                    1_GWF-(3,51,25) -3.31955341E-02                    1_GWF-(1,31,59)
         52          4         10  1.35040448E-03                    1_GWF-(3,51,25) -3.67141717E-02                    1_GWF-(2,58,29)
         53          4         11  6.22215267E-04                    1_GWF-(3,51,25)  1.11173902E-02                    1_GWF-(1,59,29)
         54          4         12  1.69416646E-04                    1_GWF-(2,25,20)  6.12243792E-03                    1_GWF-(1,59,29)
         55          4         13  1.83381278E-04                    1_GWF-(2,21,20) -1.10752925E-02                    1_GWF-(1,58,29)
         56          4         14  3.80825645E-05                    1_GWF-(2,21,21)  1.65943511E-03                    1_GWF-(1,59,29)
         57          5          1  5.95061736E-02                    1_GWF-(2,33,34)       4.5585618                    1_GWF-(3,35,40)
         58          5          2  1.71609285E-02                    1_GWF-(1,39,40)       1.8919558                    1_GWF-(3,35,40)
         59          5          3  4.45161077E-03                    1_GWF-(1,40,39)     -0.81108190                    1_GWF-(2,58,29)
         60          5          4  6.48031111E-03                    1_GWF-(1,51,37)     -0.53132123                    1_GWF-(2,46,36)
         61          5          5 -4.14372660E-03                    1_GWF-(1,51,37)     -0.49612808                    1_GWF-(2,36,34)
         62          5          6  1.17114633E-02                    1_GWF-(1,51,37)     -0.22941496                    1_GWF-(1,39,40)
         63          5          7 -3.79417749E-03                    1_GWF-(1,51,37)     -0.24390809                    1_GWF-(1,39,40)
         64          5          8  7.80209067E-03                    1_GWF-(3,50,26) -8.80924089E-02                    1_GWF-(2,49,37)
         65          5          9  1.39627248E-03                    1_GWF-(3,50,26) -4.27485184E-02                    1_GWF-(1,31,60)
         66          5         10  1.87482956E-03                    1_GWF-(3,50,26)  4.77336812E-02                    1_GWF-(1,50,37)
         67          5         11  5.18524201E-04                    1_GWF-(3,50,26)  1.23922288E-02                    1_GWF-(1,50,37)
         68          5         12  3.90922361E-04                    1_GWF-(2,25,20)  1.44119968E-02                    1_GWF-(1,50,37)
         69          5         13  1.07160863E-04                    1_GWF-(2,24,21)  2.75981458E-03                    1_GWF-(2,36,34)
         70          5         14  5.47715901E-05                    1_GWF-(2,21,20)  4.68998763E-03                    1_GWF-(1,50,37)
         71          6          1  5.03774276E-02                    1_GWF-(2,33,34)       3.9617043                    1_GWF-(3,35,40)
         72          6          2  1.29250567E-02                    1_GWF-(1,39,40)       1.6648618                    1_GWF-(3,35,40)
         73          6          3  3.62725533E-03                    1_GWF-(1,40,39)     -0.68463012                    1_GWF-(2,58,29)
         74          6          4  5.62976947E-03                    1_GWF-(1,41,39)     -0.55493733                    1_GWF-(2,46,36)
         75          6          5  5.45608491E-03                    1_GWF-(1,39,40)      0.17440198                    1_GWF-(1,39,40)
         76          6          6 -7.79436136E-04                    1_GWF-(2,58,29)     -0.16288190                    1_GWF-(2,36,36)
         77          6          7  7.10580449E-03                    1_GWF-(3,50,26) -8.38865000E-02                    1_GWF-(1,58,29)
         78          6          8  1.02420405E-03                    1_GWF-(3,50,26)     -0.11257233                    1_GWF-(1,59,29)
         79          6          9 -5.21778254E-04                    1_GWF-(2,58,29) -8.26407614E-02                    1_GWF-(1,58,29)
         80          6         10  2.13659831E-03                    1_GWF-(3,50,26)  3.52217893E-02                    1_GWF-(2,52,40)
         81          6         11 -1.35420685E-03                    1_GWF-(3,50,26) -3.85556368E-02                    1_GWF-(2,47,37)
         82          6         12  2.00804579E-03                    1_GWF-(3,50,26) -1.44705438E-02                    1_GWF-(1,47,37)
         83          6         13  8.35830555E-05                    1_GWF-(2,24,22)  2.04024669E-03                    1_GWF-(2,36,34)
         84          7          1  4.26619634E-02                    1_GWF-(2,33,34)       3.3677733                    1_GWF-(3,35,40)
         85          7          2  1.05342202E-02                    1_GWF-(1,39,40)       1.4176099                    1_GWF-(3,35,40)
         86          7          3  3.09400745E-03                    1_GWF-(1,40,39)     -0.56881134                    1_GWF-(2,58,29)
         87          7          4  4.92289778E-03                    1_GWF-(1,42,32)     -0.44730489                    1_GWF-(2,46,36)
         88          7          5  4.10502281E-03                    1_GWF-(1,39,40)     -0.13723117                    1_GWF-(2,36,36)
         89          7          6  5.43063163E-03                    1_GWF-(3,49,27)     -0.11171489                    1_GWF-(1,59,29)
         90          7          7 -1.16551489E-03                    1_GWF-(1,40,39)      0.13177502                    1_GWF-(1,39,40)
         91          7          8  2.03428758E-03                    1_GWF-(3,50,26) -5.15923376E-02                    1_GWF-(1,39,40)
         92          7          9  1.98238556E-04                    1_GWF-(1,39,40) -3.66388559E-02                    1_GWF-(1,31,59)
         93          7         10  2.24089272E-03                    1_GWF-(3,50,26)  2.99412483E-02                    1_GWF-(1,59,29)
         94          7         11  2.95813899E-04                    1_GWF-(3,50,26)  2.90145849E-03                    1_GWF-(1,59,29)
         95          7         12  1.08212701E-04                    1_GWF-(4,23,22)  6.00742428E-03                    1_GWF-(1,59,29)
         96          7         13  4.91996312E-05                    1_GWF-(2,24,22)  1.96293682E-03                    1_GWF-(1,59,29)
         97          8          1  3.61244005E-02                    1_GWF-(2,33,34)       2.8515642                    1_GWF-(3,35,40)
         98          8          2  8.79628356E-03                    1_GWF-(1,39,40)       1.1993339                    1_GWF-(3,35,40)
         99          8          3  2.61371428E-03                    1_GWF-(1,40,39)     -0.48243705                    1_GWF-(2,58,29)
        100          8          4  4.18641302E-03                    1_GWF-(1,42,32)     -0.38611298                    1_GWF-(2,46,36)
        101          8          5  3.61005652E-03                    1_GWF-(1,39,40)     -0.11201298                    1_GWF-(2,46,37)
        102          8          6      0.22642423                    1_GWF-(3,49,27)      -6.9192519                    1_GWF-(1,39,40)
        103          8          7     -0.22203103                    1_GWF-(3,49,27)  8.37207072E-02                    1_GWF-(1,39,40)
        104          8          8  1.12603514E-03                    1_GWF-(3,50,26) -5.58526328E-02                    1_GWF-(1,59,29)
        105          8          9  2.87867132E-04                    1_GWF-(1,39,40) -3.19417865E-02                    1_GWF-(1,58,29)
        106          8         10  1.73540443E-03                    1_GWF-(3,50,26)  3.35122309E-02                    1_GWF-(1,59,29)
        107          8         11  3.10245004E-04                    1_GWF-(3,50,26)  3.30976897E-03                    1_GWF-(1,59,29)
        108          8         12  1.11119720E-04                    1_GWF-(2,23,21)  6.89253714E-03                    1_GWF-(1,59,29)
        109          8         13  5.15246402E-05                    1_GWF-(2,23,21)  2.62962271E-03                    1_GWF-(1,59,29)
        110          9          1  3.05958657E-02                    1_GWF-(2,33,34)       2.4213911                    1_GWF-(3,35,40)
        111          9          2  7.35224595E-03                    1_GWF-(1,39,40)       1.0157240                    1_GWF-(3,35,40)
        112          9          3  2.22236796E-03                    1_GWF-(1,40,39)     -0.41556916                    1_GWF-(2,58,29)
        113          9          4  3.44535040E-03                    1_GWF-(1,42,32)     -0.32100268                    1_GWF-(2,46,36)
        114          9          5  3.09450691E-03                    1_GWF-(1,39,40) -9.65005694E-02                    1_GWF-(2,46,37)
        115          9          6  8.76362101E-03                    1_GWF-(3,49,27)     -0.22018326                    1_GWF-(1,39,40)
        116          9          7 -4.97055206E-03                    1_GWF-(3,49,27)  6.66845514E-02                    1_GWF-(1,39,40)
        117          9          8  9.22479484E-04                    1_GWF-(3,50,26) -5.29475697E-02                    1_GWF-(1,59,29)
        118          9          9  2.45524292E-04                    1_GWF-(1,39,40) -3.36333684E-02                    1_GWF-(1,58,29)
        119          9         10  1.40019228E-03                    1_GWF-(3,50,26) -3.12860075E-02                    1_GWF-(2,58,29)
        120          9         11  3.03559177E-04                    1_GWF-(3,50,26)  3.53354717E-03                    1_GWF-(1,59,29)
        121          9         12  1.04566522E-04                    1_GWF-(2,23,20)  7.60268223E-03                    1_GWF-(1,59,29)
        122          9         13  5.00309836E-05                    1_GWF-(2,23,21)  2.72354106E-03                    1_GWF-(1,59,29)
        123         10          1  2.59051043E-02                    1_GWF-(2,33,34)       2.0516162                    1_GWF-(3,35,40)
        124         10          2  6.15575946E-03                    1_GWF-(1,39,40)      0.86025708                    1_GWF-(3,35,40)
        125         10          3  1.87533483E-03                    1_GWF-(1,40,39)     -0.35309213                    1_GWF-(2,58,29)
        126         10          4  2.90813840E-03                    1_GWF-(1,42,32)     -0.26997795                    1_GWF-(2,46,36)
        127         10          5  2.61537990E-03                    1_GWF-(1,39,40) -8.21536192E-02                    1_GWF-(2,46,37)
        128         10          6  3.47017224E-03                    1_GWF-(3,49,27) -7.23199885E-02                    1_GWF-(1,59,29)
        129         10          7 -5.63084499E-04                    1_GWF-(1,40,39) -4.93258984E-02                    1_GWF-(1,58,29)
        130         10          8  9.45462786E-04                    1_GWF-(3,50,26) -5.34768981E-02                    1_GWF-(1,59,29)
        131         10          9 -2.19344338E-04                    1_GWF-(2,58,29) -2.96474630E-02                    1_GWF-(1,58,29)
        132         10         10  1.14748346E-03                    1_GWF-(3,50,26) -2.70805150E-02                    1_GWF-(2,58,29)
        133         10         11  2.64334836E-04                    1_GWF-(3,50,26)  3.10833970E-03                    1_GWF-(1,59,29)
        134         10         12  9.06728365E-05                    1_GWF-(2,23,20)  6.93514662E-03                    1_GWF-(1,59,29)
        135         11          1  2.19286618E-02                    1_GWF-(2,33,34)       1.7411290                    1_GWF-(3,35,40)
        136         11          2  5.05978554E-03                    1_GWF-(1,39,40)      0.74082614                    1_GWF-(3,35,40)
        137         11          3  1.58229159E-03                    1_GWF-(1,40,39)     -0.31005380                    1_GWF-(2,58,29)
        138         11          4  2.06264571E-03                    1_GWF-(1,42,32)     -0.20046152                    1_GWF-(2,58,29)
        139         11          5  1.32941133E-03                    1_GWF-(1,39,40)     -0.10865974                    1_GWF-(3,37,33)
        140         11          6  3.18360699E-03                    1_GWF-(3,49,27)  5.80131650E-02                    1_GWF-(3,35,40)
        141         11          7 -1.38272419E-03                    1_GWF-(3,49,27)      0.11475581                    1_GWF-(3,35,40)
        142         11          8  2.93241854E-03                    1_GWF-(3,49,27) -3.22843835E-02                    1_GWF-(1,47,36)
        143         11          9 -6.95385725E-04                    1_GWF-(3,49,27) -2.46359318E-02                    1_GWF-(2,36,34)
        144         11         10  1.47655686E-03                    1_GWF-(3,50,26)  6.03708332E-03                    1_GWF-(3,35,40)
        145         11         11  1.84082483E-04                    1_GWF-(3,50,26)  3.49029462E-03                    1_GWF-(1,47,37)
        146         11         12  4.44341270E-05                    1_GWF-(2,25,21) -1.05466939E-03                    1_GWF-(1,38,31)
        147         12          1  1.85630270E-02                    1_GWF-(2,33,34)       1.4699861                    1_GWF-(3,35,40)
        148         12          2  4.33911607E-03                    1_GWF-(1,39,40)      0.61526407                    1_GWF-(3,35,40)
        149         12          3  1.31348149E-03                    1_GWF-(1,40,39)     -0.24164222                    1_GWF-(2,58,29)
        150         12          4  2.28769136E-03                    1_GWF-(1,42,32)     -0.20101406                    1_GWF-(2,46,36)
        151         12          5  2.01069619E-03                    1_GWF-(1,39,40)  6.91779554E-02                    1_GWF-(1,39,40)
        152         12          6  2.95297343E-04                    1_GWF-(1,40,39) -4.79966051E-02                    1_GWF-(1,47,36)
        153         12          7      0.14848877                    1_GWF-(3,49,27)       2.8370156                    1_GWF-(2,36,34)
        154         12          8     -0.14661632                    1_GWF-(3,49,27) -2.62729189E-02                    1_GWF-(1,58,29)
        155         12          9  5.76145939E-04                    1_GWF-(3,49,27) -2.80040413E-02                    1_GWF-(2,58,29)
        156         12         10  6.43914325E-04                    1_GWF-(3,50,26) -1.80936801E-02                    1_GWF-(2,58,29)
        157         12         11  2.29157752E-04                    1_GWF-(3,50,26)  5.79445157E-03                    1_GWF-(1,59,29)
        158         12         12  6.08569487E-05                    1_GWF-(2,25,20)  1.92907391E-03                    1_GWF-(1,48,37)
        159         13          1  1.57177627E-02                    1_GWF-(2,33,34)       1.2457879                    1_GWF-(3,35,40)
        160         13          2  3.65510210E-03                    1_GWF-(1,39,40)      0.52225785                    1_GWF-(3,35,40)
        161         13          3  1.11658073E-03                    1_GWF-(1,40,39)     -0.20907246                    1_GWF-(2,58,29)
        162         13          4  1.87956751E-03                    1_GWF-(1,42,32)     -0.17054103                    1_GWF-(2,46,36)
        163         13          5  1.79899966E-03                    1_GWF-(1,39,40)  6.40890886E-02                    1_GWF-(1,39,40)
        164         13          6  3.01304439E-04                    1_GWF-(1,40,39) -4.67526964E-02                    1_GWF-(1,47,37)
        165         13          7 -1.51665187E-02                    1_GWF-(3,49,27)     -0.33660180                    1_GWF-(2,36,36)
        166         13          8  1.67858186E-02                    1_GWF-(3,49,27) -3.10672531E-02                    1_GWF-(1,58,29)
        167         13          9  3.86507343E-04                    1_GWF-(3,49,27) -1.34773470E-02                    1_GWF-(1,58,29)
        168         13         10  5.62754994E-04                    1_GWF-(3,50,26) -1.65074048E-02                    1_GWF-(2,58,29)
        169         13         11  1.55264915E-04                    1_GWF-(3,50,26)  2.79320234E-03                    1_GWF-(1,59,29)
        170         13         12  4.76972443E-05                    1_GWF-(2,24,21)  1.87057773E-03                    1_GWF-(1,59,29)
        171         14          1  1.33021656E-02                    1_GWF-(2,33,34)       1.0537520                    1_GWF-(3,35,40)
        172         14          2  3.08343461E-03                    1_GWF-(1,39,40)      0.44157683                    1_GWF-(3,35,40)
        173         14          3  9.47006251E-04                    1_GWF-(1,40,39)     -0.17703499                    1_GWF-(2,58,29)
        174         14          4  1.58820301E-03                    1_GWF-(1,42,32)     -0.14313627                    1_GWF-(2,46,36)
        175         14          5  1.50705205E-03                    1_GWF-(1,39,40)  5.26150740E-02                    1_GWF-(1,39,40)
        176         14          6  2.50311234E-04                    1_GWF-(1,40,39) -4.02304026E-02                    1_GWF-(1,47,37)
        177         14          7 -9.83754511E-03                    1_GWF-(3,49,27)     -0.22807649                    1_GWF-(2,36,36)
        178         14          8  1.12343523E-02                    1_GWF-(3,49,27) -2.85716075E-02                    1_GWF-(1,58,29)
        179         14          9  3.29924992E-04                    1_GWF-(3,49,27) -1.06666431E-02                    1_GWF-(1,58,29)
        180         14         10  4.70229529E-04                    1_GWF-(3,50,26) -1.35803556E-02                    1_GWF-(2,58,29)
        181         14         11  1.26654199E-04                    1_GWF-(3,50,26)  2.19457342E-03                    1_GWF-(1,59,29)
        182         14         12  3.91983479E-05                    1_GWF-(2,24,21)  1.36064806E-03                    1_GWF-(1,49,37)
        183         15          1  1.12595208E-02                    1_GWF-(2,33,34)      0.89222326                    1_GWF-(3,35,40)
        184         15          2  2.59830815E-03                    1_GWF-(1,39,40)      0.37372897                    1_GWF-(3,35,40)
        185         15          3  7.99172300E-04                    1_GWF-(1,40,39)     -0.14931611                    1_GWF-(2,58,29)
        186         15          4  1.35267771E-03                    1_GWF-(1,42,32)     -0.12110456                    1_GWF-(2,46,36)
        187         15          5  1.27127803E-03                    1_GWF-(1,39,40)  4.46541202E-02                    1_GWF-(1,39,40)
        188         15          6  2.12337336E-04                    1_GWF-(1,40,39) -3.41781898E-02                    1_GWF-(1,47,37)
        189         15          7 -7.10136757E-03                    1_GWF-(3,49,27)     -0.16708819                    1_GWF-(2,36,36)
        190         15          8  8.28494761E-03                    1_GWF-(3,49,27) -2.46706087E-02                    1_GWF-(1,58,29)
        191         15          9  2.74634322E-04                    1_GWF-(3,49,27) -8.38437936E-03                    1_GWF-(1,58,29)
        192         15         10  3.91882144E-04                    1_GWF-(3,50,26)  1.11162212E-02                    1_GWF-(1,59,29)
        193         15         11  1.03002329E-04                    1_GWF-(3,50,26)  1.70832150E-03                    1_GWF-(1,59,29)
        194         15         12  3.18628167E-05                    1_GWF-(2,24,21)  1.04120957E-03                    1_GWF-(1,49,37)
        195         16          1  9.52981276E-03                    1_GWF-(2,33,34)      0.75538021                    1_GWF-(3,35,40)
        196         16          2  2.18903314E-03                    1_GWF-(1,39,40)      0.31602045                    1_GWF-(3,35,40)
        197         16          3  6.71354099E-04                    1_GWF-(1,40,39)     -0.12509603                    1_GWF-(2,58,29)
        198         16          4  1.16681856E-03                    1_GWF-(1,42,32)     -0.10261620                    1_GWF-(2,46,36)
        199         16          5  1.06949743E-03                    1_GWF-(1,39,40)  3.80148321E-02                    1_GWF-(1,39,40)
        200         16          6  1.80497753E-04                    1_GWF-(1,40,39) -2.87130305E-02                    1_GWF-(1,47,37)
        201         16          7 -5.65684896E-03                    1_GWF-(3,49,27)     -0.13038111                    1_GWF-(2,36,36)
        202         16          8  6.66023541E-03                    1_GWF-(3,49,27) -2.07604150E-02                    1_GWF-(1,58,29)
        203         16          9  2.19745583E-04                    1_GWF-(3,49,27) -6.53266015E-03                    1_GWF-(1,31,60)
        204         16         10  3.20181682E-04                    1_GWF-(3,50,26)  8.59343775E-03                    1_GWF-(1,59,29)
        205         16         11  7.98202852E-05                    1_GWF-(3,49,27)  1.19199106E-03                    1_GWF-(1,59,29)
        206         17          1  8.06401445E-03                    1_GWF-(2,33,34)      0.63921612                    1_GWF-(3,35,40)
        207         17          2  1.84255668E-03                    1_GWF-(1,39,40)      0.26760429                    1_GWF-(3,35,40)
        208         17          3  5.71262359E-04                    1_GWF-(1,40,39)     -0.10714440                    1_GWF-(2,58,29)
        209         17          4  9.71196677E-04                    1_GWF-(1,42,32) -8.72690709E-02                    1_GWF-(2,46,36)
        210         17          5  9.25850363E-04                    1_GWF-(1,39,40)  3.31790632E-02                    1_GWF-(1,39,40)
        211         17          6  1.59416060E-04                    1_GWF-(1,40,39) -2.51850756E-02                    1_GWF-(1,47,37)
        212         17          7 -3.93023105E-03                    1_GWF-(3,49,27) -9.62446230E-02                    1_GWF-(2,36,36)
        213         17          8  4.77678200E-03                    1_GWF-(3,49,27) -1.74006864E-02                    1_GWF-(1,58,29)
        214         17          9  1.90429848E-04                    1_GWF-(3,49,27) -5.61005751E-03                    1_GWF-(1,31,60)
        215         17         10  2.70806467E-04                    1_GWF-(3,50,26)  7.39773278E-03                    1_GWF-(1,59,29)
        216         17         11  6.88294486E-05                    1_GWF-(3,49,27)  1.03491329E-03                    1_GWF-(1,59,29)
 --------------------------------------------------------------------------------------------------------------------------------------


 
    Solving:  Stress period:     2    Time step:     1
 
1
 STRESS PERIOD NO. 2, LENGTH =   31.00000    
 ------------------------------------------
 NUMBER OF TIME STEPS = 1
 MULTIPLIER FOR DELT =     1.500
 #k i j q boundname

 OPENED ./external/wel_004.dat
 FILE TYPE:OPEN/CLOSE   UNIT 1067   STATUS:OLD                 
 FORMAT:FORMATTED              ACCESS:SEQUENTIAL          
 ACTION:READ                

 #k i j head boundname

 OPENED ./external/chd_002.dat
 FILE TYPE:OPEN/CLOSE   UNIT 1069   STATUS:OLD                 
 FORMAT:FORMATTED              ACCESS:SEQUENTIAL          
 ACTION:READ                

 INITIAL TIME STEP SIZE =   31.00000    

 SLN_1 OUTER ITERATION SUMMARY
 ----------------------------------------------------------------------------------------------------------
                                OUTER      INNER                    STEP   MAXIMUM CHANGE MODEL-(CELLID) OR
 OUTER ITERATION STEP       ITERATION  ITERATION  MAXIMUM CHANGE SUCCESS             MODEL-PACKAGE-(NUMBER)
 ----------------------------------------------------------------------------------------------------------
 Model                              1          8       1.3868725                            1_GWF-(4,25,55)
 Model                              2          7      0.29076950                             1_GWF-(1,46,1)
 Model                              3          4  2.90685502E-02                             1_GWF-(1,46,1)
 Model                              4          3  2.90675963E-03       *                     1_GWF-(1,46,1)
 Package                            4                 0.15754979                    1_GWF-SFR_0-(62)-inflow
 Model                              5          2  2.90663462E-04       *                     1_GWF-(1,46,1)
 Package                            5             5.13437786E-02                    1_GWF-SFR_0-(62)-inflow
 Model                              6          1 -4.65680451E-05       *                    1_GWF-(2,33,35)
 Package                            6             1.33243424E-02                    1_GWF-SFR_0-(62)-inflow
 Model                              7          1 -1.12511768E-05       *                    1_GWF-(2,33,36)
 Package                            7             6.54334436E-03       *            1_GWF-SFR_0-(62)-inflow
 ----------------------------------------------------------------------------------------------------------


 7 CALLS TO NUMERICAL SOLUTION IN TIME STEP 1 STRESS PERIOD 2
 26 TOTAL ITERATIONS

 SLN_1 INNER ITERATION SUMMARY
 --------------------------------------------------------------------------------------------------------------------------------------
      TOTAL      OUTER      INNER                                                            MAXIMUM                                   
  ITERATION  ITERATION  ITERATION  MAXIMUM CHANGE      MAXIMUM CHANGE MODEL-(CELLID)        RESIDUAL    MAXIMUM RESIDUAL MODEL-(CELLID)
 --------------------------------------------------------------------------------------------------------------------------------------
          1          1          1       1.3872187                    1_GWF-(4,25,55)      -42.573058                    1_GWF-(4,24,56)
          2          1          2 -5.38546562E-02                     1_GWF-(1,46,1)       13.503183                    1_GWF-(4,25,55)
          3          1          3 -3.86870928E-02                    1_GWF-(4,25,55)       2.4693961                     1_GWF-(3,25,3)
          4          1          4 -7.20704076E-03                    1_GWF-(2,58,29)      -1.5319840                    1_GWF-(2,52,40)
          5          1          5 -5.36116323E-03                    1_GWF-(4,25,55)      0.45708573                    1_GWF-(2,58,29)
          6          1          6 -8.35453137E-03                    1_GWF-(4,18,54)      -1.2854472                    1_GWF-(1,13,65)
          7          1          7  6.74503772E-03                    1_GWF-(4,18,54)  5.39734826E-02                    1_GWF-(1,13,65)
          8          1          8 -2.03437093E-04                    1_GWF-(4,25,50)  9.13317094E-03                    1_GWF-(1,31,54)
          9          2          1      0.27284415                     1_GWF-(1,46,1)      -2.2507151                    1_GWF-(2,46,37)
         10          2          2  1.19962693E-02                     1_GWF-(1,46,1)     -0.62190642                     1_GWF-(3,46,1)
         11          2          3  4.45702434E-03                     1_GWF-(1,46,1)     -0.15453142                     1_GWF-(3,46,1)
         12          2          4  1.15545397E-03                     1_GWF-(1,40,9) -5.03194430E-02                    1_GWF-(1,59,29)
         13          2          5  3.51206708E-04                     1_GWF-(1,46,1) -3.22426556E-02                    1_GWF-(2,58,29)
         14          2          6  1.02322954E-04                    1_GWF-(2,58,29)  6.20086100E-03                    1_GWF-(1,43,35)
         15          2          7 -3.52374593E-05                    1_GWF-(4,28,44)  2.19111581E-03                    1_GWF-(2,58,29)
         16          3          1  2.80688513E-02                     1_GWF-(1,46,1)      0.28282979                    1_GWF-(2,52,40)
         17          3          2 -7.89319856E-04                    1_GWF-(3,46,15)  6.31936666E-02                    1_GWF-(2,52,40)
         18          3          3 -4.25735220E-04                    1_GWF-(3,46,15)  1.46795907E-02                    1_GWF-(2,36,40)
         19          3          4  8.69898343E-05                     1_GWF-(1,46,1) -1.28117728E-02                    1_GWF-(1,59,29)
         20          4          1  2.82408417E-03                     1_GWF-(1,46,1)  8.37014293E-02                    1_GWF-(2,58,29)
         21          4          2 -2.10369725E-04                    1_GWF-(2,58,29)  1.68567239E-02                    1_GWF-(1,37,34)
         22          4          3 -6.19024383E-05                    1_GWF-(3,46,15)  7.93821541E-03                    1_GWF-(2,58,29)
         23          5          1  2.79707638E-04                     1_GWF-(1,46,1)  3.10569449E-02                    1_GWF-(2,58,29)
         24          5          2 -7.39719441E-05                    1_GWF-(2,58,29) -6.32994354E-03                    1_GWF-(2,41,35)
         25          6          1 -4.65680451E-05                    1_GWF-(2,33,35) -8.49138032E-03                    1_GWF-(2,41,35)
         26          7          1 -1.12511768E-05                    1_GWF-(2,33,36)  2.54277221E-03                    1_GWF-(1,41,35)
 --------------------------------------------------------------------------------------------------------------------------------------


 
    Solving:  Stress period:     3    Time step:     1
 
1
 STRESS PERIOD NO. 3, LENGTH =   29.00000    
 ------------------------------------------
 NUMBER OF TIME STEPS = 1
 MULTIPLIER FOR DELT =     1.500
 #k i j head boundname

 OPENED ./external/chd_003.dat
 FILE TYPE:OPEN/CLOSE   UNIT 1071   STATUS:OLD                 
 FORMAT:FORMATTED              ACCESS:SEQUENTIAL          
 ACTION:READ                

 INITIAL TIME STEP SIZE =   29.00000    

 SLN_1 OUTER ITERATION SUMMARY
 ----------------------------------------------------------------------------------------------------------
                                OUTER      INNER                    STEP   MAXIMUM CHANGE MODEL-(CELLID) OR
 OUTER ITERATION STEP       ITERATION  ITERATION  MAXIMUM CHANGE SUCCESS             MODEL-PACKAGE-(NUMBER)
 ----------------------------------------------------------------------------------------------------------
 Model                              1          8     -0.22805054                            1_GWF-(1,49,45)
 Model                              2          5     -0.10702670                            1_GWF-(1,52,31)
 Model                              3          4  7.13088038E-03       *                     1_GWF-(3,45,2)
 Package                            3                  2.8314229                    1_GWF-SFR_0-(35)-inflow
 Model                              4          2  7.25704615E-04       *                     1_GWF-(3,45,2)
 Package                            4                 0.13887136                    1_GWF-SFR_0-(62)-inflow
 Model                              5          2 -1.37084262E-04       *                    1_GWF-(2,33,36)
 Package                            5             1.83530427E-02                    1_GWF-SFR_0-(62)-inflow
 Model                              6          1 -3.17690635E-05       *                    1_GWF-(2,33,36)
 Package                            6             1.72468145E-02                    1_GWF-SFR_0-(62)-inflow
 Model                              7          1 -7.73651789E-06       *                    1_GWF-(2,33,35)
 Package                            7             5.06231442E-03       *            1_GWF-SFR_0-(62)-inflow
 ----------------------------------------------------------------------------------------------------------


 7 CALLS TO NUMERICAL SOLUTION IN TIME STEP 1 STRESS PERIOD 3
 23 TOTAL ITERATIONS

 SLN_1 INNER ITERATION SUMMARY
 --------------------------------------------------------------------------------------------------------------------------------------
      TOTAL      OUTER      INNER                                                            MAXIMUM                                   
  ITERATION  ITERATION  ITERATION  MAXIMUM CHANGE      MAXIMUM CHANGE MODEL-(CELLID)        RESIDUAL    MAXIMUM RESIDUAL MODEL-(CELLID)
 --------------------------------------------------------------------------------------------------------------------------------------
          1          1          1     -0.21531689                    1_GWF-(1,49,45)       19.457369                     1_GWF-(1,2,67)
          2          1          2 -1.63837769E-02                    1_GWF-(4,36,13)      -4.0045286                     1_GWF-(2,2,67)
          3          1          3 -1.11239803E-02                    1_GWF-(2,58,29)       1.0887138                     1_GWF-(2,3,67)
          4          1          4 -3.71899723E-03                    1_GWF-(4,16,54)       1.7304589                    1_GWF-(2,58,29)
          5          1          5 -4.67848282E-03                    1_GWF-(2,58,29)      0.31434504                    1_GWF-(1,13,65)
          6          1          6 -2.88069154E-03                    1_GWF-(2,58,29)      0.84809408                    1_GWF-(1,59,29)
          7          1          7  2.25234641E-03                    1_GWF-(2,58,29) -7.06880800E-02                    1_GWF-(2,58,29)
          8          1          8  2.62887812E-04                    1_GWF-(2,58,29)  1.49478036E-02                    1_GWF-(2,58,29)
          9          2          1     -0.10990681                    1_GWF-(1,52,31)     -0.87906290                    1_GWF-(3,48,20)
         10          2          2  6.97033079E-03                    1_GWF-(1,49,26)      0.32609351                    1_GWF-(1,37,35)
         11          2          3  1.33876079E-03                    1_GWF-(1,49,26)  4.54372868E-02                     1_GWF-(3,45,2)
         12          2          4  4.04287143E-04                    1_GWF-(3,52,31)  3.76955732E-02                    1_GWF-(1,37,35)
         13          2          5 -7.29474551E-05                    1_GWF-(3,49,26) -7.90532900E-03                    1_GWF-(2,57,29)
         14          3          1  7.40103711E-03                     1_GWF-(3,45,2)     -0.13628562                    1_GWF-(1,37,35)
         15          3          2 -4.88818455E-04                    1_GWF-(2,50,26)      0.11249700                    1_GWF-(1,58,29)
         16          3          3 -2.49948805E-04                    1_GWF-(2,58,29) -2.46157279E-02                    1_GWF-(2,46,36)
         17          3          4 -3.36554452E-05                    1_GWF-(2,57,29)  5.20435316E-03                    1_GWF-(1,58,29)
         18          4          1  7.39026383E-04                     1_GWF-(3,45,2)  3.83105691E-02                    1_GWF-(2,58,29)
         19          4          2 -9.45077366E-05                    1_GWF-(2,58,29)  1.02913736E-02                    1_GWF-(1,37,34)
         20          5          1 -1.37838626E-04                    1_GWF-(2,33,36)  1.77819334E-02                    1_GWF-(2,58,29)
         21          5          2 -5.59167845E-05                    1_GWF-(2,58,29)  2.72236329E-03                    1_GWF-(2,38,33)
         22          6          1 -3.17690634E-05                    1_GWF-(2,33,36)  1.61896244E-03                    1_GWF-(1,57,30)
         23          7          1 -7.73651790E-06                    1_GWF-(2,33,35)  1.77836373E-03                    1_GWF-(1,37,35)
 --------------------------------------------------------------------------------------------------------------------------------------


 
    Solving:  Stress period:     4    Time step:     1
 
1
 STRESS PERIOD NO. 4, LENGTH =   31.00000    
 ------------------------------------------
 NUMBER OF TIME STEPS = 1
 MULTIPLIER FOR DELT =     1.500
 #k i j head boundname

 OPENED ./external/chd_004.dat
 FILE TYPE:OPEN/CLOSE   UNIT 1073   STATUS:OLD                 
 FORMAT:FORMATTED              ACCESS:SEQUENTIAL          
 ACTION:READ                

 INITIAL TIME STEP SIZE =   31.00000    

 SLN_1 OUTER ITERATION SUMMARY
 ----------------------------------------------------------------------------------------------------------
                                OUTER      INNER                    STEP   MAXIMUM CHANGE MODEL-(CELLID) OR
 OUTER ITERATION STEP       ITERATION  ITERATION  MAXIMUM CHANGE SUCCESS             MODEL-PACKAGE-(NUMBER)
 ----------------------------------------------------------------------------------------------------------
 Model                              1          8      0.50045885                             1_GWF-(1,56,7)
 Model                              2          5 -7.05512363E-02                            1_GWF-(1,64,27)
 Model                              3          3 -8.52957218E-03       *                    1_GWF-(1,64,27)
 Package                            3                 -1.3667283                    1_GWF-SFR_0-(35)-inflow
 Model                              4          2 -8.74504510E-04       *                    1_GWF-(1,64,27)
 Package                            4            -7.83404461E-02                    1_GWF-SFR_0-(35)-inflow
 Model                              5          2 -1.09778699E-04       *                    1_GWF-(1,64,27)
 Package                            5             9.53468452E-03       *            1_GWF-SFR_0-(62)-inflow
 ----------------------------------------------------------------------------------------------------------


 5 CALLS TO NUMERICAL SOLUTION IN TIME STEP 1 STRESS PERIOD 4
 20 TOTAL ITERATIONS

 SLN_1 INNER ITERATION SUMMARY
 --------------------------------------------------------------------------------------------------------------------------------------
      TOTAL      OUTER      INNER                                                            MAXIMUM                                   
  ITERATION  ITERATION  ITERATION  MAXIMUM CHANGE      MAXIMUM CHANGE MODEL-(CELLID)        RESIDUAL    MAXIMUM RESIDUAL MODEL-(CELLID)
 --------------------------------------------------------------------------------------------------------------------------------------
          1          1          1      0.47451754                     1_GWF-(1,56,7)      -26.999341                    1_GWF-(2,52,40)
          2          1          2  3.48208079E-02                    1_GWF-(2,52,40)       2.2241553                    1_GWF-(1,28,67)
          3          1          3  8.47815125E-03                    1_GWF-(2,52,40)       4.9346819                    1_GWF-(2,52,40)
          4          1          4 -5.78822217E-03                    1_GWF-(2,52,40)      0.26860129                    1_GWF-(1,57,31)
          5          1          5  9.07967798E-04                    1_GWF-(4,24,54)     -0.17300937                    1_GWF-(1,59,29)
          6          1          6 -8.49590165E-04                    1_GWF-(2,58,29)     -0.14080824                    1_GWF-(2,58,29)
          7          1          7  4.07378467E-04                    1_GWF-(2,58,29) -3.53470685E-02                    1_GWF-(1,31,54)
          8          1          8  2.11347536E-04                    1_GWF-(4,24,53) -7.60109398E-03                    1_GWF-(2,46,36)
          9          2          1 -6.62722958E-02                    1_GWF-(1,64,27)      0.54077565                    1_GWF-(3,64,27)
         10          2          2 -3.11555792E-03                    1_GWF-(1,64,27)     -0.16173208                    1_GWF-(3,30,16)
         11          2          3 -8.76648834E-04                    1_GWF-(1,64,27) -4.05155678E-02                     1_GWF-(1,21,5)
         12          2          4 -2.48120490E-04                    1_GWF-(1,64,27) -1.05378203E-02                    1_GWF-(2,58,29)
         13          2          5 -3.86132822E-05                    1_GWF-(1,64,27) -1.63616810E-03                    1_GWF-(1,58,29)
         14          3          1 -8.14803623E-03                    1_GWF-(1,64,27)  4.93253445E-02                    1_GWF-(3,64,27)
         15          3          2 -3.39364849E-04                    1_GWF-(1,64,27)  1.90344847E-02                    1_GWF-(1,37,35)
         16          3          3 -4.21710966E-05                    1_GWF-(1,64,27) -3.82274968E-03                    1_GWF-(2,58,29)
         17          4          1 -8.38644715E-04                    1_GWF-(1,64,27) -2.31070119E-02                    1_GWF-(2,58,29)
         18          4          2  6.47021438E-05                    1_GWF-(2,58,29) -3.99519589E-03                    1_GWF-(3,34,40)
         19          5          1 -1.07232624E-04                    1_GWF-(1,64,27) -5.91880958E-03                    1_GWF-(2,58,29)
         20          5          2  1.62407170E-05                    1_GWF-(2,58,29) -1.04282349E-03                    1_GWF-(3,34,40)
 --------------------------------------------------------------------------------------------------------------------------------------


 
    Solving:  Stress period:     5    Time step:     1
 
1
 STRESS PERIOD NO. 5, LENGTH =   30.00000    
 ------------------------------------------
 NUMBER OF TIME STEPS = 1
 MULTIPLIER FOR DELT =     1.500
 #k i j q boundname

 OPENED ./external/wel_005.dat
 FILE TYPE:OPEN/CLOSE   UNIT 1074   STATUS:OLD                 
 FORMAT:FORMATTED              ACCESS:SEQUENTIAL          
 ACTION:READ                

 #k i j head boundname

 OPENED ./external/chd_005.dat
 FILE TYPE:OPEN/CLOSE   UNIT 1076   STATUS:OLD                 
 FORMAT:FORMATTED              ACCESS:SEQUENTIAL          
 ACTION:READ                

 INITIAL TIME STEP SIZE =   30.00000    

 SLN_1 OUTER ITERATION SUMMARY
 ----------------------------------------------------------------------------------------------------------
                                OUTER      INNER                    STEP   MAXIMUM CHANGE MODEL-(CELLID) OR
 OUTER ITERATION STEP       ITERATION  ITERATION  MAXIMUM CHANGE SUCCESS             MODEL-PACKAGE-(NUMBER)
 ----------------------------------------------------------------------------------------------------------
 Model                              1          8      0.72944255                            1_GWF-(1,64,12)
 Model                              2          6     -0.26976570                            1_GWF-(3,53,31)
 Model                              3          5 -6.53418421E-02                            1_GWF-(3,53,31)
 Model                              4          4 -9.37057649E-03       *                    1_GWF-(3,53,31)
 Package                            4            -7.95301714E-02                    1_GWF-SFR_0-(62)-inflow
 Model                              5          2  1.49792718E-03       *                    1_GWF-(1,54,30)
 Package                            5            -1.97562411E-02                    1_GWF-SFR_0-(62)-inflow
 Model                              6          2  2.69382852E-04       *                    1_GWF-(1,54,30)
 Package                            6            -3.48978430E-03       *            1_GWF-SFR_0-(62)-inflow
 ----------------------------------------------------------------------------------------------------------


 6 CALLS TO NUMERICAL SOLUTION IN TIME STEP 1 STRESS PERIOD 5
 27 TOTAL ITERATIONS

 SLN_1 INNER ITERATION SUMMARY
 --------------------------------------------------------------------------------------------------------------------------------------
      TOTAL      OUTER      INNER                                                            MAXIMUM                                   
  ITERATION  ITERATION  ITERATION  MAXIMUM CHANGE      MAXIMUM CHANGE MODEL-(CELLID)        RESIDUAL    MAXIMUM RESIDUAL MODEL-(CELLID)
 --------------------------------------------------------------------------------------------------------------------------------------
          1          1          1      0.65189729                    1_GWF-(1,63,11)      -57.645657                    1_GWF-(2,52,40)
          2          1          2  8.81380716E-02                    1_GWF-(2,52,40)      -5.9466502                    1_GWF-(2,52,40)
          3          1          3  4.97652549E-02                     1_GWF-(1,41,9)      -16.083186                    1_GWF-(2,52,40)
          4          1          4 -3.33029567E-02                     1_GWF-(1,41,9)      -1.3914394                    1_GWF-(2,46,37)
          5          1          5  3.24447361E-03                    1_GWF-(4,21,52)      0.94334813                    1_GWF-(2,46,37)
          6          1          6  2.63038345E-03                    1_GWF-(2,58,29)      0.20881989                    1_GWF-(2,58,29)
          7          1          7  6.53085121E-04                    1_GWF-(4,22,52)  5.08227695E-02                    1_GWF-(2,58,29)
          8          1          8 -2.56421643E-04                    1_GWF-(2,58,29)  3.04173951E-02                    1_GWF-(1,59,29)
          9          2          1     -0.26325551                    1_GWF-(3,53,31)       2.4433825                    1_GWF-(1,51,40)
         10          2          2 -7.88697253E-03                    1_GWF-(3,54,29)       1.0661372                    1_GWF-(1,47,37)
         11          2          3 -2.11655616E-03                    1_GWF-(3,54,29)     -0.18888762                    1_GWF-(3,45,47)
         12          2          4  6.81008491E-04                    1_GWF-(1,45,47) -6.15794329E-02                    1_GWF-(3,45,47)
         13          2          5  2.40029949E-04                    1_GWF-(1,45,47) -1.46069134E-02                    1_GWF-(3,45,47)
         14          2          6 -8.61793630E-05                    1_GWF-(3,45,48)  1.06409326E-02                    1_GWF-(2,58,29)
         15          3          1 -6.48210397E-02                    1_GWF-(3,53,31)     -0.62655134                    1_GWF-(2,52,40)
         16          3          2  9.12881719E-04                    1_GWF-(1,45,47)     -0.11604582                    1_GWF-(4,53,31)
         17          3          3  7.01048402E-04                    1_GWF-(1,45,47)  5.70960925E-02                    1_GWF-(4,53,31)
         18          3          4 -1.31525860E-04                    1_GWF-(1,45,47)  3.40792178E-03                    1_GWF-(3,54,29)
         19          3          5 -1.49055089E-05                    1_GWF-(3,54,29)  1.34545262E-03                    1_GWF-(3,54,29)
         20          4          1 -9.34608735E-03                    1_GWF-(3,53,31) -7.11459875E-02                    1_GWF-(2,52,40)
         21          4          2 -1.52882897E-04                    1_GWF-(3,54,30) -1.35993123E-02                    1_GWF-(4,53,31)
         22          4          3 -1.08964034E-04                    1_GWF-(3,54,30) -5.05115745E-03                    1_GWF-(4,54,30)
         23          4          4  9.97273826E-06                    1_GWF-(1,47,47) -9.61983081E-04                    1_GWF-(2,58,29)
         24          5          1  1.52128858E-03                    1_GWF-(1,54,30) -6.77520563E-03                    1_GWF-(4,53,31)
         25          5          2 -2.33613987E-05                    1_GWF-(3,54,30) -1.70453516E-03                    1_GWF-(4,53,31)
         26          6          1  2.77166664E-04                    1_GWF-(1,54,30) -2.52748854E-03                    1_GWF-(2,58,29)
         27          6          2 -7.78381176E-06                    1_GWF-(3,54,30) -6.60852182E-04                    1_GWF-(2,58,29)
 --------------------------------------------------------------------------------------------------------------------------------------


 
    Solving:  Stress period:     6    Time step:     1
 
1
 STRESS PERIOD NO. 6, LENGTH =   31.00000    
 ------------------------------------------
 NUMBER OF TIME STEPS = 1
 MULTIPLIER FOR DELT =     1.500
 #k i j q boundname

 OPENED ./external/wel_006.dat
 FILE TYPE:OPEN/CLOSE   UNIT 1077   STATUS:OLD                 
 FORMAT:FORMATTED              ACCESS:SEQUENTIAL          
 ACTION:READ                

 #k i j head boundname

 OPENED ./external/chd_006.dat
 FILE TYPE:OPEN/CLOSE   UNIT 1079   STATUS:OLD                 
 FORMAT:FORMATTED              ACCESS:SEQUENTIAL          
 ACTION:READ                

 INITIAL TIME STEP SIZE =   31.00000    

 SLN_1 OUTER ITERATION SUMMARY
 ----------------------------------------------------------------------------------------------------------
                                OUTER      INNER                    STEP   MAXIMUM CHANGE MODEL-(CELLID) OR
 OUTER ITERATION STEP       ITERATION  ITERATION  MAXIMUM CHANGE SUCCESS             MODEL-PACKAGE-(NUMBER)
 ----------------------------------------------------------------------------------------------------------
 Model                              1          9      -1.3644402                            1_GWF-(4,25,55)
 Model                              2          7     -0.27535152                            1_GWF-(3,44,13)
 Model                              3          5 -8.58920290E-02                            1_GWF-(3,44,13)
 Model                              4          4 -1.31761290E-02                            1_GWF-(3,44,13)
 Model                              5          2  2.46847009E-03       *                     1_GWF-(1,41,7)
 Package                            5            -7.98947402E-02                    1_GWF-SFR_0-(62)-inflow
 Model                              6          2  5.05340639E-04       *                     1_GWF-(1,41,7)
 Package                            6            -1.44858761E-02                    1_GWF-SFR_0-(62)-inflow
 Model                              7          1  8.92214301E-05       *                     1_GWF-(1,41,7)
 Package                            7            -1.07311246E-02                    1_GWF-SFR_0-(62)-inflow
 Model                              8          1  1.69829938E-05       *                     1_GWF-(1,41,7)
 Package                            8            -2.57896858E-03       *            1_GWF-SFR_0-(62)-inflow
 ----------------------------------------------------------------------------------------------------------


 8 CALLS TO NUMERICAL SOLUTION IN TIME STEP 1 STRESS PERIOD 6
 31 TOTAL ITERATIONS

 SLN_1 INNER ITERATION SUMMARY
 --------------------------------------------------------------------------------------------------------------------------------------
      TOTAL      OUTER      INNER                                                            MAXIMUM                                   
  ITERATION  ITERATION  ITERATION  MAXIMUM CHANGE      MAXIMUM CHANGE MODEL-(CELLID)        RESIDUAL    MAXIMUM RESIDUAL MODEL-(CELLID)
 --------------------------------------------------------------------------------------------------------------------------------------
          1          1          1      -1.4746180                    1_GWF-(4,25,55)      -100.46389                     1_GWF-(1,2,67)
          2          1          2  9.70001384E-02                    1_GWF-(1,44,13)      -25.583273                     1_GWF-(3,18,3)
          3          1          3  6.90712526E-02                    1_GWF-(4,25,55)      -5.8881618                     1_GWF-(3,25,3)
          4          1          4  2.82824420E-02                    1_GWF-(2,58,29)      -5.4956958                    1_GWF-(1,59,29)
          5          1          5 -1.71872053E-02                    1_GWF-(2,58,29)     -0.98017325                    1_GWF-(1,13,65)
          6          1          6  6.00935662E-03                    1_GWF-(2,58,29)      -1.2583508                    1_GWF-(1,59,29)
          7          1          7  5.50135794E-03                    1_GWF-(4,18,54)      0.11091800                    1_GWF-(1,59,29)
          8          1          8  5.98365392E-04                    1_GWF-(2,58,29)      0.11247216                    1_GWF-(2,58,29)
          9          1          9 -3.88252314E-04                    1_GWF-(2,58,29)  1.45993026E-02                    1_GWF-(1,59,29)
         10          2          1     -0.24864393                    1_GWF-(3,44,13)      -11.167203                    1_GWF-(2,45,38)
         11          2          2 -2.30489490E-02                    1_GWF-(3,44,13)      -2.4097984                    1_GWF-(1,13,67)
         12          2          3 -4.57756163E-03                    1_GWF-(3,54,48)      0.74346427                    1_GWF-(2,47,37)
         13          2          4 -1.17002448E-03                    1_GWF-(3,57,24)     -0.22760711                    1_GWF-(1,13,67)
         14          2          5 -5.98412791E-04                    1_GWF-(3,57,24)  9.13397073E-02                    1_GWF-(2,58,29)
         15          2          6 -2.30419204E-04                    1_GWF-(2,58,29)  1.07453923E-02                    1_GWF-(2,58,29)
         16          2          7  3.43721674E-05                    1_GWF-(2,41,34) -1.05540795E-02                    1_GWF-(2,52,40)
         17          3          1 -8.11371727E-02                    1_GWF-(3,44,13)      0.71279718                    1_GWF-(3,44,13)
         18          3          2 -4.18186197E-03                    1_GWF-(3,44,13)      0.18513578                    1_GWF-(3,43,14)
         19          3          3  4.98304905E-04                    1_GWF-(1,45,13)  8.03156646E-02                    1_GWF-(3,43,14)
         20          3          4  3.25521724E-04                    1_GWF-(1,45,13)  2.72047690E-02                    1_GWF-(2,58,29)
         21          3          5 -5.40499678E-05                    1_GWF-(2,58,29)  8.08313562E-03                    1_GWF-(2,58,29)
         22          4          1 -1.25983433E-02                    1_GWF-(3,44,13)  9.84473449E-02                    1_GWF-(3,43,14)
         23          4          2  5.27718248E-04                     1_GWF-(1,41,7)  3.49360154E-02                    1_GWF-(3,43,14)
         24          4          3  1.55650140E-04                     1_GWF-(1,41,7)  1.22517528E-02                    1_GWF-(2,58,29)
         25          4          4  4.07679948E-05                     1_GWF-(1,41,7) -3.23284032E-03                    1_GWF-(1,57,30)
         26          5          1  2.40102865E-03                     1_GWF-(1,41,7) -2.44618938E-02                    1_GWF-(1,57,30)
         27          5          2  6.78104625E-05                    1_GWF-(1,45,13)  5.55780444E-03                    1_GWF-(3,43,14)
         28          6          1  5.02242211E-04                     1_GWF-(1,41,7)  1.08925959E-02                    1_GWF-(2,58,29)
         29          6          2 -2.28220582E-05                    1_GWF-(2,58,29)  2.39476632E-03                    1_GWF-(2,58,29)
         30          7          1  8.92214301E-05                     1_GWF-(1,41,7) -3.01739459E-03                    1_GWF-(1,37,35)
         31          8          1  1.69829938E-05                     1_GWF-(1,41,7) -8.69778368E-04                    1_GWF-(2,35,34)
 --------------------------------------------------------------------------------------------------------------------------------------


 
    Solving:  Stress period:     7    Time step:     1
 
1
 STRESS PERIOD NO. 7, LENGTH =   30.00000    
 ------------------------------------------
 NUMBER OF TIME STEPS = 1
 MULTIPLIER FOR DELT =     1.500
 #k i j q boundname

 OPENED ./external/wel_007.dat
 FILE TYPE:OPEN/CLOSE   UNIT 1080   STATUS:OLD                 
 FORMAT:FORMATTED              ACCESS:SEQUENTIAL          
 ACTION:READ                

 #k i j head boundname

 OPENED ./external/chd_007.dat
 FILE TYPE:OPEN/CLOSE   UNIT 1082   STATUS:OLD                 
 FORMAT:FORMATTED              ACCESS:SEQUENTIAL          
 ACTION:READ                

 INITIAL TIME STEP SIZE =   30.00000    

 SLN_1 OUTER ITERATION SUMMARY
 ----------------------------------------------------------------------------------------------------------
                                OUTER      INNER                    STEP   MAXIMUM CHANGE MODEL-(CELLID) OR
 OUTER ITERATION STEP       ITERATION  ITERATION  MAXIMUM CHANGE SUCCESS             MODEL-PACKAGE-(NUMBER)
 ----------------------------------------------------------------------------------------------------------
 Model                              1          9      -6.4704981                             1_GWF-(1,25,3)
 Model                              2          7     -0.60936708                            1_GWF-(1,44,48)
 Model                              3          5      0.13358010                             1_GWF-(1,40,8)
 Model                              4          5  1.50916807E-02                             1_GWF-(1,40,8)
 Model                              5          3  1.56777872E-03       *                     1_GWF-(1,40,8)
 Package                            5             8.19703765E-02                    1_GWF-SFR_0-(62)-inflow
 Model                              6          2 -1.87154434E-04       *                     1_GWF-(1,39,8)
 Package                            6             1.57375802E-02                    1_GWF-SFR_0-(62)-inflow
 Model                              7          1 -3.24955905E-05       *                     1_GWF-(1,39,8)
[...]
         20          4          2  2.47395993E-04                     1_GWF-(1,19,3)  4.36649593E-02                    1_GWF-(1,37,35)
         21          4          3  3.13107244E-05                    1_GWF-(2,58,29)  1.04494823E-02                     1_GWF-(3,19,3)
         22          5          1  7.53410323E-04                     1_GWF-(1,19,3) -3.32029173E-02                     1_GWF-(1,18,3)
         23          5          2  5.69317554E-05                    1_GWF-(2,58,29) -1.48635853E-02                     1_GWF-(1,18,3)
         24          6          1  1.44675733E-04                     1_GWF-(1,19,3)  6.66614118E-03                    1_GWF-(1,37,35)
         25          6          2  1.07709365E-05                     1_GWF-(1,19,3)  1.62661183E-03                     1_GWF-(3,19,3)
         26          7          1  2.54807535E-05                     1_GWF-(1,19,3)  2.45910872E-03                    1_GWF-(1,37,35)
 --------------------------------------------------------------------------------------------------------------------------------------


 
    Solving:  Stress period:    11    Time step:     1
 
1
 STRESS PERIOD NO. 11, LENGTH =   31.00000    
 ------------------------------------------
 NUMBER OF TIME STEPS = 1
 MULTIPLIER FOR DELT =     1.500
 #k i j q boundname
 #k i j head boundname

 OPENED ./external/chd_011.dat
 FILE TYPE:OPEN/CLOSE   UNIT 1093   STATUS:OLD                 
 FORMAT:FORMATTED              ACCESS:SEQUENTIAL          
 ACTION:READ                

 INITIAL TIME STEP SIZE =   31.00000    

 SLN_1 OUTER ITERATION SUMMARY
 ----------------------------------------------------------------------------------------------------------
                                OUTER      INNER                    STEP   MAXIMUM CHANGE MODEL-(CELLID) OR
 OUTER ITERATION STEP       ITERATION  ITERATION  MAXIMUM CHANGE SUCCESS             MODEL-PACKAGE-(NUMBER)
 ----------------------------------------------------------------------------------------------------------
 Model                              1          8       1.6156691                            1_GWF-(4,25,55)
 Model                              2          6     -0.10527222                             1_GWF-(1,18,3)
 Model                              3          4 -1.23460996E-02                             1_GWF-(1,18,3)
 Model                              4          2 -1.29175463E-03       *                     1_GWF-(1,18,3)
 Package                            4                -0.17978217                    1_GWF-SFR_0-(62)-inflow
 Model                              5          2  1.67614827E-04       *                    1_GWF-(2,33,36)
 Package                            5            -3.99466800E-02                    1_GWF-SFR_0-(62)-inflow
 Model                              6          1  4.24493678E-05       *                    1_GWF-(2,33,36)
 Package                            6            -2.50351372E-02                    1_GWF-SFR_0-(62)-inflow
 Model                              7          1 -2.04238344E-05       *                    1_GWF-(2,58,29)
 Package                            7            -9.10583155E-03       *            1_GWF-SFR_0-(62)-inflow
 ----------------------------------------------------------------------------------------------------------


 7 CALLS TO NUMERICAL SOLUTION IN TIME STEP 1 STRESS PERIOD 11
 24 TOTAL ITERATIONS

 SLN_1 INNER ITERATION SUMMARY
 --------------------------------------------------------------------------------------------------------------------------------------
      TOTAL      OUTER      INNER                                                            MAXIMUM                                   
  ITERATION  ITERATION  ITERATION  MAXIMUM CHANGE      MAXIMUM CHANGE MODEL-(CELLID)        RESIDUAL    MAXIMUM RESIDUAL MODEL-(CELLID)
 --------------------------------------------------------------------------------------------------------------------------------------
          1          1          1       1.5942334                    1_GWF-(4,25,55)      -43.555352                    1_GWF-(4,24,56)
          2          1          2  8.32977084E-02                    1_GWF-(4,27,57)       13.205670                    1_GWF-(4,25,55)
          3          1          3 -2.41075194E-02                    1_GWF-(2,58,29)       2.7272617                     1_GWF-(3,25,3)
          4          1          4 -4.10266242E-03                     1_GWF-(3,25,3)      0.74773987                     1_GWF-(3,25,3)
          5          1          5 -1.80078250E-03                    1_GWF-(4,12,53)      0.51371607                    1_GWF-(2,58,29)
          6          1          6 -2.25607164E-03                    1_GWF-(2,58,29)      0.33433813                    1_GWF-(4,26,54)
          7          1          7 -2.09351922E-03                    1_GWF-(4,13,54) -8.87526048E-02                    1_GWF-(2,58,29)
          8          1          8  2.09982578E-04                    1_GWF-(2,58,29) -1.58838758E-02                    1_GWF-(2,58,29)
          9          2          1     -0.10620920                     1_GWF-(1,18,3)       2.2614042                     1_GWF-(3,17,3)
         10          2          2  2.69657149E-03                     1_GWF-(3,45,2)      0.49604751                    1_GWF-(2,57,29)
         11          2          3 -1.17690793E-03                    1_GWF-(2,57,29) -8.37757761E-02                    1_GWF-(2,57,29)
         12          2          4  3.15763095E-04                    1_GWF-(2,57,29)  3.58518910E-02                    1_GWF-(2,57,29)
         13          2          5 -1.15112005E-04                    1_GWF-(2,57,29) -1.65793924E-02                    1_GWF-(2,57,29)
         14          2          6  2.52026305E-05                    1_GWF-(1,41,34) -1.19849162E-02                    1_GWF-(2,57,29)
         15          3          1 -1.26096742E-02                     1_GWF-(1,18,3)      0.32130521                     1_GWF-(3,17,3)
         16          3          2  3.32266685E-04                     1_GWF-(1,45,2)  8.15065241E-02                     1_GWF-(3,18,2)
         17          3          3 -1.65149488E-04                    1_GWF-(2,58,29)  1.90815525E-02                     1_GWF-(3,18,2)
         18          3          4  4.47716366E-05                    1_GWF-(2,38,33) -9.36632418E-03                    1_GWF-(1,38,35)
         19          4          1 -1.31017311E-03                     1_GWF-(1,18,3) -4.56960903E-02                    1_GWF-(1,37,35)
         20          4          2 -7.18023139E-05                    1_GWF-(2,58,29) -2.32747829E-02                     1_GWF-(1,18,3)
         21          5          1  1.56301081E-04                    1_GWF-(2,33,36)  3.29432522E-02                    1_GWF-(2,58,29)
         22          5          2 -9.36771089E-05                    1_GWF-(2,58,29) -4.87060837E-03                    1_GWF-(1,37,34)
         23          6          1  4.24493678E-05                    1_GWF-(2,33,36)  9.25985989E-03                    1_GWF-(2,58,29)
         24          7          1 -2.04238344E-05                    1_GWF-(2,58,29) -2.23434878E-03                    1_GWF-(1,36,34)
 --------------------------------------------------------------------------------------------------------------------------------------


 
    Solving:  Stress period:    12    Time step:     1
 
1
 STRESS PERIOD NO. 12, LENGTH =   30.00000    
 ------------------------------------------
 NUMBER OF TIME STEPS = 1
 MULTIPLIER FOR DELT =     1.500
 #k i j head boundname

 OPENED ./external/chd_012.dat
 FILE TYPE:OPEN/CLOSE   UNIT 1095   STATUS:OLD                 
 FORMAT:FORMATTED              ACCESS:SEQUENTIAL          
 ACTION:READ                

 INITIAL TIME STEP SIZE =   30.00000    

 SLN_1 OUTER ITERATION SUMMARY
 ----------------------------------------------------------------------------------------------------------
                                OUTER      INNER                    STEP   MAXIMUM CHANGE MODEL-(CELLID) OR
 OUTER ITERATION STEP       ITERATION  ITERATION  MAXIMUM CHANGE SUCCESS             MODEL-PACKAGE-(NUMBER)
 ----------------------------------------------------------------------------------------------------------
 Model                              1          8     -0.73812634                            1_GWF-(1,51,48)
 Model                              2          6 -8.02414425E-02                             1_GWF-(1,40,5)
 Model                              3          3  7.20836271E-03       *                     1_GWF-(3,45,2)
 Package                            3                  2.9781566                    1_GWF-SFR_0-(35)-inflow
 Model                              4          3  7.01588663E-04       *                     1_GWF-(1,45,2)
 Package                            4             8.83564814E-02                    1_GWF-SFR_0-(62)-inflow
 Model                              5          2 -1.09438416E-04       *                    1_GWF-(2,33,36)
 Package                            5             3.54492400E-02                    1_GWF-SFR_0-(62)-inflow
 Model                              6          1 -2.59390663E-05       *                    1_GWF-(2,33,35)
 Package                            6             7.50963196E-03       *            1_GWF-SFR_0-(62)-inflow
 ----------------------------------------------------------------------------------------------------------


 6 CALLS TO NUMERICAL SOLUTION IN TIME STEP 1 STRESS PERIOD 12
 23 TOTAL ITERATIONS

 SLN_1 INNER ITERATION SUMMARY
 --------------------------------------------------------------------------------------------------------------------------------------
      TOTAL      OUTER      INNER                                                            MAXIMUM                                   
  ITERATION  ITERATION  ITERATION  MAXIMUM CHANGE      MAXIMUM CHANGE MODEL-(CELLID)        RESIDUAL    MAXIMUM RESIDUAL MODEL-(CELLID)
 --------------------------------------------------------------------------------------------------------------------------------------
          1          1          1     -0.68870062                    1_GWF-(1,51,48)       16.928644                     1_GWF-(1,2,67)
          2          1          2 -4.30037200E-02                    1_GWF-(1,51,48)      -4.4817681                     1_GWF-(2,2,67)
          3          1          3 -1.29834305E-02                    1_GWF-(2,58,29)       1.1430090                     1_GWF-(2,3,67)
          4          1          4 -3.18709535E-03                    1_GWF-(4,13,55)       1.5764185                    1_GWF-(2,58,29)
          5          1          5 -4.88189555E-03                    1_GWF-(2,58,29)      0.24779977                     1_GWF-(1,3,67)
          6          1          6  8.05301246E-04                    1_GWF-(4,11,55)     -0.11906703                    1_GWF-(1,13,65)
          7          1          7 -2.04631371E-04                    1_GWF-(4,17,54)  2.39681414E-02                    1_GWF-(2,52,40)
          8          1          8 -6.29910290E-05                    1_GWF-(4,21,52)  1.94731605E-02                    1_GWF-(2,52,40)
          9          2          1 -8.63155469E-02                     1_GWF-(3,40,5)      -1.3893919                    1_GWF-(3,27,14)
         10          2          2  3.77044118E-03                     1_GWF-(1,40,5)     -0.32274690                    1_GWF-(3,27,14)
         11          2          3  2.60586412E-03                     1_GWF-(1,40,5)     -0.19544164                    1_GWF-(1,50,37)
         12          2          4 -2.59132019E-04                    1_GWF-(2,58,29) -3.81107133E-02                    1_GWF-(2,58,29)
         13          2          5 -1.89727643E-04                     1_GWF-(3,40,5)  1.21072042E-02                    1_GWF-(2,58,29)
         14          2          6 -3.13784056E-05                    1_GWF-(2,58,29)  1.91887770E-03                    1_GWF-(1,49,37)
         15          3          1  7.30783200E-03                     1_GWF-(3,45,2)     -0.11829651                    1_GWF-(1,37,35)
         16          3          2 -1.55657307E-04                    1_GWF-(1,49,37)  3.84483526E-02                    1_GWF-(1,37,35)
         17          3          3 -6.79147794E-05                     1_GWF-(1,45,2) -1.59506703E-02                    1_GWF-(1,37,35)
         18          4          1  7.12754704E-04                     1_GWF-(1,45,2)  3.88513544E-02                    1_GWF-(2,58,29)
         19          4          2 -1.03206253E-04                    1_GWF-(2,58,29)  8.00880592E-03                    1_GWF-(1,37,34)
         20          4          3 -1.78966848E-05                    1_GWF-(4,29,39)  6.62946733E-03                    1_GWF-(2,58,29)
         21          5          1 -1.06664681E-04                    1_GWF-(2,33,36)  1.69979937E-02                    1_GWF-(2,58,29)
         22          5          2 -3.35565590E-05                    1_GWF-(2,58,29)  5.65536672E-03                    1_GWF-(2,58,29)
         23          6          1 -2.59390663E-05                    1_GWF-(2,33,35)  3.26947734E-03                    1_GWF-(1,37,35)
 --------------------------------------------------------------------------------------------------------------------------------------


 
    Solving:  Stress period:    13    Time step:     1
 
1
 STRESS PERIOD NO. 13, LENGTH =   31.00000    
 ------------------------------------------
 NUMBER OF TIME STEPS = 1
 MULTIPLIER FOR DELT =     1.500
 #k i j head boundname
 INITIAL TIME STEP SIZE =   31.00000    

 SLN_1 OUTER ITERATION SUMMARY
 ----------------------------------------------------------------------------------------------------------
                                OUTER      INNER                    STEP   MAXIMUM CHANGE MODEL-(CELLID) OR
 OUTER ITERATION STEP       ITERATION  ITERATION  MAXIMUM CHANGE SUCCESS             MODEL-PACKAGE-(NUMBER)
 ----------------------------------------------------------------------------------------------------------
 Model                              1          8     -0.21347789                            1_GWF-(1,51,48)
 Model                              2          6  7.71353961E-02                             1_GWF-(3,45,2)
 Model                              3          4  7.27468455E-03       *                     1_GWF-(1,45,2)
 Package                            3                  1.0848130                    1_GWF-SFR_0-(35)-inflow
 Model                              4          2  7.24411557E-04       *                     1_GWF-(1,45,2)
 Package                            4                -0.10991327                    1_GWF-SFR_0-(35)-inflow
 Model                              5          1 -8.29521712E-05       *                    1_GWF-(2,33,36)
 Package                            5             1.76027141E-02                    1_GWF-SFR_0-(62)-inflow
 Model                              6          1 -1.88538439E-05       *                    1_GWF-(2,33,36)
 Package                            6             8.72502084E-03       *            1_GWF-SFR_0-(62)-inflow
 ----------------------------------------------------------------------------------------------------------


 6 CALLS TO NUMERICAL SOLUTION IN TIME STEP 1 STRESS PERIOD 13
 22 TOTAL ITERATIONS

 SLN_1 INNER ITERATION SUMMARY
 --------------------------------------------------------------------------------------------------------------------------------------
      TOTAL      OUTER      INNER                                                            MAXIMUM                                   
  ITERATION  ITERATION  ITERATION  MAXIMUM CHANGE      MAXIMUM CHANGE MODEL-(CELLID)        RESIDUAL    MAXIMUM RESIDUAL MODEL-(CELLID)
 --------------------------------------------------------------------------------------------------------------------------------------
          1          1          1     -0.20297798                     1_GWF-(3,45,2)       18.443209                     1_GWF-(1,2,67)
          2          1          2 -3.10840176E-02                    1_GWF-(2,58,29)      -4.6792782                     1_GWF-(2,2,67)
          3          1          3 -8.66058614E-03                    1_GWF-(4,11,56)       1.4814005                    1_GWF-(2,58,29)
          4          1          4 -3.11858468E-03                    1_GWF-(2,57,29)       1.0816028                    1_GWF-(2,58,29)
          5          1          5  1.27277776E-02                    1_GWF-(4,15,54)       3.1265939                     1_GWF-(2,3,67)
          6          1          6 -1.57645249E-02                    1_GWF-(4,15,54)     -0.11330597                    1_GWF-(2,58,29)
          7          1          7 -2.88468829E-04                    1_GWF-(4,19,52) -4.77093041E-02                    1_GWF-(2,58,29)
          8          1          8  8.30095162E-05                    1_GWF-(2,58,29)  1.80760411E-02                    1_GWF-(1,57,30)
          9          2          1  7.75651933E-02                     1_GWF-(3,45,2)      -3.0468027                    1_GWF-(1,57,31)
         10          2          2 -4.53732234E-03                    1_GWF-(1,57,29)     -0.88371208                    1_GWF-(1,57,31)
         11          2          3 -2.00310480E-03                    1_GWF-(2,57,30)     -0.16572074                    1_GWF-(3,44,42)
         12          2          4 -6.22100322E-04                    1_GWF-(1,48,16) -4.12258180E-02                    1_GWF-(2,57,29)
         13          2          5 -1.67734847E-04                     1_GWF-(1,45,2)  4.75624758E-03                    1_GWF-(1,57,30)
         14          2          6 -4.68530545E-05                     1_GWF-(1,45,2) -6.90388364E-03                    1_GWF-(1,57,30)
         15          3          1  7.24041215E-03                     1_GWF-(1,45,2)     -0.31196185                    1_GWF-(1,57,31)
         16          3          2 -4.68662127E-04                    1_GWF-(2,57,29) -8.90764392E-02                    1_GWF-(1,57,31)
         17          3          3 -1.85858540E-04                    1_GWF-(2,57,30) -1.04130894E-02                    1_GWF-(2,57,29)
         18          3          4 -5.23436021E-05                    1_GWF-(3,48,16)  5.69869114E-03                    1_GWF-(1,57,30)
         19          4          1  7.33480859E-04                     1_GWF-(3,45,2) -5.06314784E-02                    1_GWF-(1,57,31)
         20          4          2 -7.84472275E-05                    1_GWF-(2,57,30) -1.55846138E-02                    1_GWF-(1,57,31)
         21          5          1 -8.29521712E-05                    1_GWF-(2,33,36)  9.89351206E-03                    1_GWF-(1,37,36)
         22          6          1 -1.88538439E-05                    1_GWF-(2,33,36)  2.70195374E-03                    1_GWF-(2,35,34)
 --------------------------------------------------------------------------------------------------------------------------------------



 MEMORY MANAGER TOTAL STORAGE BY DATA TYPE, IN MEGABYTES
 -------------------------------
                    ALLOCATED   
 DATA TYPE           MEMORY     
 -------------------------------
 Character        1.47500000E-02
 Logical          4.80000000E-05
 Integer          4.7522160     
 Real             10.351896     
 -------------------------------
 Total            15.118910     
 Virtual          0.0000000     
 -------------------------------


 
 Run end date and time (yyyy/mm/dd hh:mm:ss): 2025/02/25 14:48:18
 Elapsed run time:  4.102 Seconds

WARNING REPORT:

  1. OPTIONS BLOCK VARIABLE 'UNIT_CONVERSION' IN FILE 'pleasant.sfr' WAS
     DEPRECATED IN VERSION 6.4.2. SETTING UNIT_CONVERSION DIRECTLY.
 Normal termination of simulation.
