                                   MODFLOW 6
                U.S. GEOLOGICAL SURVEY MODULAR HYDROLOGIC MODEL
                   VERSION 6.3.0 release candidate 02/06/2022
                               ***DEVELOP MODE***

   MODFLOW 6 compiled Feb 06 2022 02:35:51 with Intel(R) Fortran Intel(R) 64
   Compiler Classic for applications running on Intel(R) 64, Version 2021.5.0
                             Build 20211109_000000

This software is preliminary or provisional and is subject to 
revision. It is being provided to meet the need for timely best 
science. The software has not received final approval by the U.S. 
Geological Survey (USGS). No warranty, expressed or implied, is made 
by the USGS or the U.S. Government as to the functionality of the 
software and related material nor shall the fact of release 
constitute any such warranty. The software is provided on the 
condition that neither the USGS nor the U.S. Government shall be held 
liable for any damages resulting from the authorized or unauthorized 
use of the software.


As a work of the United States Government, this USGS product is 
in the public domain within the United States. You can copy, 
modify, distribute, and perform the work, even for commercial 
purposes, all without asking permission. Additionally, USGS 
waives copyright and related rights in the work worldwide 
through CC0 1.0 Universal Public Domain Dedication 
(https://creativecommons.org/publicdomain/zero/1.0/).

The following GNU Lesser General Public License (LGPL) libraries
are used in this USGS product:

    SPARSKIT version 2.0
      ilut, luson, and qsplit 
      (https://www-users.cse.umn.edu/~saad/software/SPARSKIT/)

    RCM - Reverse Cuthill McKee Ordering
      (https://people.math.sc.edu/Burkardt/f_src/rcm/rcm.html)

    BLAS - Basic Linear Algebra Subprograms Level 1
      (https://people.math.sc.edu/Burkardt/f_src/blas1_d/blas1_d.html)

    SPARSEKIT - Sparse Matrix Utility Package
      amux, dperm, dvperm, rperm, and cperm
      (https://people.sc.fsu.edu/~jburkardt/f77_src/sparsekit/sparsekit.html)

The following BSD-3 License libraries are used in this USGS product:

    Modern Fortran DAG Library
      Copyright (c) 2018, Jacob Williams
      All rights reserved.
      (https://github.com/jacobwilliams/daglib)

MODFLOW 6 compiler options: /O2 /heap-arrays:0 /fpe:0 /traceback /nologo /fpp
/c /module:.\mod_temp\ /object:.\obj_temp\

System command used to initiate simulation:
E:\15_REPOS\00_BETAMI\w10_______others\04_Mnfienen\05_\examples\pleasant_lgr\mf6.exe

MODFLOW was compiled using uniform precision.

Real Variables
  KIND: 8
  TINY (smallest non-zero value):    2.225074-308
  HUGE (largest value):    1.797693+308
  PRECISION: 15
  BIT SIZE: 64

Integer Variables
  KIND: 4
  HUGE (largest value): 2147483647
  BIT SIZE: 32

Long Integer Variables
  KIND: 8
  HUGE (largest value): 9223372036854775807
  BIT SIZE: 64

Logical Variables
  KIND: 4
  BIT SIZE: 32
 

 OPENED mfsim.nam
 FILE TYPE:NAM   UNIT 1001   STATUS:OLD                 
 FORMAT:FORMATTED              ACCESS:SEQUENTIAL          
 ACTION:READ                

 # plsnt_lgr_inset model version 0.post55.dev0+g106385f
 # Pleasant Lake test case version 0.1.post55.dev0+g106385f
 # File generated by Flopy version 3.10.0.dev1 on 01/31/2025 at 10:09:04.
 # via modflow-setup version 0.6.0 at 2025-01-31 10:09:05

 READING SIMULATION OPTIONS
 END OF SIMULATION OPTIONS

 READING SIMULATION TIMING

 OPENED pleasant_lgr.tdis
 FILE TYPE:TDIS   UNIT 1002   STATUS:OLD                 
 FORMAT:FORMATTED              ACCESS:SEQUENTIAL          
 ACTION:READ                


 TDIS -- TEMPORAL DISCRETIZATION PACKAGE,
 VERSION 1 : 11/13/2014 - INPUT READ FROM UNIT 1002
 # plsnt_lgr_inset model version 0.post55.dev0+g106385f
 # Pleasant Lake test case version 0.1.post55.dev0+g106385f
 # File generated by Flopy version 3.10.0.dev1 on 01/31/2025 at 10:09:04.
 # via modflow-setup version 0.6.0 at 2025-01-31 10:09:05
 PROCESSING TDIS OPTIONS
    SIMULATION TIME UNIT IS DAYS
    SIMULATION STARTING DATE AND TIME IS 2012-01-01                    
 END OF TDIS OPTIONS
 PROCESSING TDIS DIMENSIONS
   13 STRESS PERIOD(S) IN SIMULATION
 END OF TDIS DIMENSIONS
 # perlen nstp tsmult
 PROCESSING TDIS PERIODDATA


 STRESS PERIOD     LENGTH       TIME STEPS     MULTIPLIER FOR DELT
 ----------------------------------------------------------------------------
        1         1.000000          1                    1.000
        2         31.00000          1                    1.500
        3         29.00000          1                    1.500
        4         31.00000          1                    1.500
        5         30.00000          1                    1.500
        6         31.00000          1                    1.500
        7         30.00000          1                    1.500
        8         31.00000          1                    1.500
        9         31.00000          1                    1.500
       10         30.00000          1                    1.500
       11         31.00000          1                    1.500
       12         30.00000          1                    1.500
       13         31.00000          1                    1.500
 END OF TDIS PERIODDATA
 END OF SIMULATION TIMING

 READING SIMULATION MODELS
    GWF6 model PLSNT_LGR_PARENT will be created as model 1
    GWF6 model PLSNT_LGR_INSET will be created as model 2
 END OF SIMULATION MODELS

 READING SIMULATION EXCHANGES
    GWF6-GWF6 exchange 1 will be created to connect model 1 with model 2
 END OF SIMULATION EXCHANGES

 READING SOLUTIONGROUP

 Creating solution: SLN_1           

 OPENED pleasant_lgr.ims
 FILE TYPE:IMS   UNIT 1026   STATUS:OLD                 
 FORMAT:FORMATTED              ACCESS:SEQUENTIAL          
 ACTION:READ                

 END OF SIMULATION SOLUTIONGROUP

 Creating exchange: GWF-GWF_1       

 OPENED pleasant_lgr.gwfgwf
 FILE TYPE:GWF-GWF   UNIT 1059   STATUS:OLD                 
 FORMAT:FORMATTED              ACCESS:SEQUENTIAL          
 ACTION:READ                

 # plsnt_lgr_inset model version 0.post55.dev0+g106385f
 # Pleasant Lake test case version 0.1.post55.dev0+g106385f
 # File generated by Flopy version 3.10.0.dev1 on 01/31/2025 at 10:09:05.
 # via modflow-setup version 0.6.0 at 2025-01-31 10:09:05
 PROCESSING GWF-GWF EXCHANGE OPTIONS
    AUXILIARY GWF_GWF_Exchange VARIABLE: ANGLDEGX        
    AUXILIARY GWF_GWF_Exchange VARIABLE: CDIST           

 OPENED pleasant_lgr.mvr
 FILE TYPE:MVR   UNIT 1060   STATUS:OLD                 
 FORMAT:FORMATTED              ACCESS:SEQUENTIAL          
 ACTION:READ                

    WATER MOVER INFORMATION WILL BE READ FROM 
    pleasant_lgr.mvr
 END OF GWF-GWF EXCHANGE OPTIONS
 PROCESSING EXCHANGE DIMENSIONS
    NEXG = 1390
 END OF EXCHANGE DIMENSIONS
 PROCESSING EXCHANGEDATA
 END OF EXCHANGEDATA

PROCESSING MODEL CONNECTIONS
END OF MODEL CONNECTIONS

 MVR -- WATER MOVER PACKAGE, VERSION 8, 1/29/2016 INPUT READ FROM UNIT 1060
 # plsnt_lgr_inset model version 0.post55.dev0+g106385f
 # Pleasant Lake test case version 0.1.post55.dev0+g106385f
 # File generated by Flopy version 3.10.0.dev1 on 01/31/2025 at 10:09:05.
 # via modflow-setup version 0.6.0 at 2025-01-31 10:09:05
 PROCESSING MVR OPTIONS
    LISTS OF WATER MOVER FLOWS WILL BE PRINTED TO LIST FILE.
    ALL PACKAGE NAMES ARE PRECEDED BY THE NAME OF THE MODEL CONTAINING THE PACKAGE.
 END OF MVR OPTIONS

 PROCESSING MVR DIMENSIONS
    MAXMVR = 2
    MAXPACKAGES = 2
 END OF MVR DIMENSIONS

 PROCESSING MVR PACKAGES
   INCLUDING PACKAGE: PLSNT_LGR_INSET/SFR_0
   INCLUDING PACKAGE: PLSNT_LGR_PARENT/SFR_0
 END OF MVR PACKAGES

 IMS -- ITERATIVE MODEL SOLUTION PACKAGE, VERSION 6, 4/28/2017
         INPUT READ FROM UNIT 1026
 # plsnt_lgr_inset model version 0.post55.dev0+g106385f
 # Pleasant Lake test case version 0.1.post55.dev0+g106385f
 # File generated by Flopy version 3.10.0.dev1 on 01/31/2025 at 10:09:04.
 # via modflow-setup version 0.6.0 at 2025-01-31 10:09:05

 PROCESSING IMS OPTIONS
 MODERATE OPTION:
 DEFAULT SOLVER INPUT VALUES REFLECT MODERETELY NONLINEAR MODEL

 OPENED solver_outer_out.csv
 FILE TYPE:CSV_OUTER_OUTPUT   UNIT 1123   STATUS:REPLACE             
 FORMAT:FORMATTED              ACCESS:SEQUENTIAL          
 ACTION:READWRITE           

    CSV OUTPUT WILL BE SAVED TO FILE: solver_outer_out.csv
    OPENED ON UNIT:    1123
 END OF IMS OPTIONS

 PROCESSING IMS NONLINEAR
 END OF IMS NONLINEAR DATA
 **UNDER-RELAXATION WILL BE USED***
 
 ***IMS LINEAR SOLVER WILL BE USED***

 IMSLINEAR -- UNSTRUCTURED LINEAR SOLUTION PACKAGE, VERSION 8, 04/28/2017

 PROCESSING LINEAR DATA
 END OF LINEAR DATA
 
 An asymmetric matrix will be solved

 OUTER ITERATION CONVERGENCE CRITERION    (DVCLOSE) =    0.100000E-01
 MAXIMUM NUMBER OF OUTER ITERATIONS        (MXITER) = 200
 SOLVER PRINTOUT INDEX                     (IPRIMS) = 2
 NONLINEAR ITERATION METHOD            (NONLINMETH) = 3
 LINEAR SOLUTION METHOD                   (LINMETH) = 1
 UNDER-RELAXATION WEIGHT REDUCTION FACTOR   (THETA) =    0.900000E+00
 UNDER-RELAXATION WEIGHT INCREASE INCREMENT (KAPPA) =    0.100000E-03
 UNDER-RELAXATION PREVIOUS HISTORY FACTOR   (GAMMA) =    0.000000E+00
 UNDER-RELAXATION MOMENTUM TERM         (AMOMENTUM) =    0.000000E+00

       SOLUTION BY THE BICONJUGATE-GRADIENT STABILIZED METHOD
 ------------------------------------------------------------------
 MAXIMUM OF 200 CALLS OF SOLUTION ROUTINE
 MAXIMUM OF 100 INTERNAL ITERATIONS PER CALL TO SOLUTION ROUTINE
 LINEAR ACCELERATION METHOD            = BCGS      
 MATRIX PRECONDITIONING TYPE           = MOD. INCOMPLETE LU  
 MATRIX SCALING APPROACH               = NO SCALING          
 MATRIX REORDERING APPROACH            = ORIGINAL ORDERING        
 NUMBER OF ORTHOGONALIZATIONS          = 0
 HEAD CHANGE CRITERION FOR CLOSURE     =    0.10000E-03
 RESIDUAL CHANGE CRITERION FOR CLOSURE =    0.10000E-03
 RESIDUAL CONVERGENCE OPTION           = 3
 RESIDUAL CONVERGENCE NORM             = RELATIVE L2NORM 
 RELAXATION FACTOR                     =    0.97000E+00



 
    Solving:  Stress period:     1    Time step:     1
 
1
                            STRESS PERIOD NO. 1, LENGTH =   1.000000    
                            -----------------------------------------------
                            NUMBER OF TIME STEPS = 1
                            MULTIPLIER FOR DELT =     1.000

  READING WATER MOVERS FOR PERIOD 1

 END OF DATA FOR PERIOD      1

    2 MOVERS READ FOR PERIOD 1
                            INITIAL TIME STEP SIZE =   1.000000    



 PSEUDO-TRANSIENT CONTINUATION WILL BE APPLIED TO MODEL 1 ("PLSNT_LGR_PARENT") DURING THIS TIME STEP
 PSEUDO-TRANSIENT CONTINUATION WILL BE APPLIED TO MODEL 2 ("PLSNT_LGR_INSET") DURING THIS TIME STEP

 SLN_1 OUTER ITERATION SUMMARY
 ----------------------------------------------------------------------------------------------------------
                                OUTER      INNER                    STEP   MAXIMUM CHANGE MODEL-(CELLID) OR
 OUTER ITERATION STEP       ITERATION  ITERATION  MAXIMUM CHANGE SUCCESS             MODEL-PACKAGE-(NUMBER)
 ----------------------------------------------------------------------------------------------------------
 Model                              1          9      -49.559913                              1_GWF-(1,4,4)
 Model                              2         41      -18.062116                             2_GWF-(5,49,3)
 Model                              3         58      -9.5395592                             2_GWF-(1,45,6)
 Model                              4         91      -5.7586822                             2_GWF-(2,57,7)
 Model                              5        100      -3.8953864                            2_GWF-(4,75,23)
 Model                              6         22      -1.3053810                            2_GWF-(2,75,20)
 Model                              7         17     -0.93868418                            2_GWF-(1,72,71)
 Model                              8         19      0.46904188                            2_GWF-(4,72,71)
 Model                              9         20     -0.27918825                            2_GWF-(4,56,60)
 Model                             10         21     -0.31844063                            2_GWF-(1,56,60)
 Model                             11         20     -0.21100893                            2_GWF-(4,55,60)
 Model                             12         21     -0.26860663                            2_GWF-(4,55,59)
 Model                             13         20     -0.20569613                            2_GWF-(4,54,59)
 Model                             14         19     -0.12029246                            2_GWF-(1,55,61)
 Model                             15         22     -0.11223948                            2_GWF-(1,55,61)
 Model                             16         18     -0.11457493                            2_GWF-(1,54,59)
 Model                             17         22     -0.11109384                            2_GWF-(1,54,59)
 Model                             18         18     -0.10566191                            2_GWF-(1,54,59)
 Model                             19         17 -9.80873287E-02                            2_GWF-(1,54,59)
 Model                             20         17 -4.62830760E-02                            2_GWF-(1,55,63)
 Model                             21         17 -3.96834857E-02                            2_GWF-(1,55,63)
 Model                             22         17 -3.53262419E-02                            2_GWF-(1,55,63)
 Model                             23         17 -2.94193150E-02                            2_GWF-(1,54,60)
 Model                             24         17 -2.59507004E-02                            2_GWF-(1,54,60)
 Model                             25         17 -2.29015622E-02                            2_GWF-(1,54,60)
 Model                             26         17 -2.00402033E-02                            2_GWF-(1,54,60)
 Model                             27         17 -1.74873946E-02                            2_GWF-(1,54,60)
 Model                             28         17 -1.52721063E-02                            2_GWF-(1,54,60)
 Model                             29         16 -1.33301635E-02                            2_GWF-(1,54,60)
 Model                             30         16 -1.15666887E-02                            2_GWF-(1,54,60)
 Model                             31         16 -1.00224315E-02                            2_GWF-(1,54,60)
 Model                             32         16 -8.74302854E-03       *                    2_GWF-(1,54,60)
 Package                           32             4.67744211E-03       *              2_GWF-LAK_0-(1)-stage
 ----------------------------------------------------------------------------------------------------------


 32 CALLS TO NUMERICAL SOLUTION IN TIME STEP 1 STRESS PERIOD 1
 792 TOTAL ITERATIONS

 SLN_1 INNER ITERATION SUMMARY
 --------------------------------------------------------------------------------------------------------------------------------------
      TOTAL      OUTER      INNER                                                            MAXIMUM                                   
  ITERATION  ITERATION  ITERATION  MAXIMUM CHANGE      MAXIMUM CHANGE MODEL-(CELLID)        RESIDUAL    MAXIMUM RESIDUAL MODEL-(CELLID)
 --------------------------------------------------------------------------------------------------------------------------------------
          1          1          1      -47.777727                      1_GWF-(2,2,2)      -40531.481                      1_GWF-(2,2,2)
          2          1          2       7.7917207                     1_GWF-(3,19,4)      -14269.374                    1_GWF-(3,21,20)
          3          1          3       8.7210117                    1_GWF-(3,21,20)      -2519.1704                      1_GWF-(1,3,3)
          4          1          4      -1.3636853                      2_GWF-(2,4,4)      -2328.4802                    1_GWF-(3,21,20)
          5          1          5       1.1327241                    1_GWF-(3,21,20)      -587.61778                    1_GWF-(3,21,20)
          6          1          6     -0.52673847                      2_GWF-(1,6,6)      -222.11571                    1_GWF-(3,21,20)
          7          1          7     -0.21493830                      2_GWF-(1,8,8)      -95.356314                    1_GWF-(3,21,20)
          8          1          8     -0.10204089                     2_GWF-(1,11,9)      -22.100956                    1_GWF-(3,21,20)
          9          1          9 -5.97710115E-02                    2_GWF-(1,15,13)       8.8738700                     1_GWF-(2,5,21)
         10          2          1      -13.263137                     1_GWF-(1,21,1)       1657.2691                     1_GWF-(2,3,13)
         11          2          2       2.4990589                     1_GWF-(4,22,2)       451.33548                     1_GWF-(2,4,14)
         12          2          3      -1.5801550                     2_GWF-(5,49,5)       391.51062                     1_GWF-(2,4,14)
         13          2          4      -2.0926239                     2_GWF-(5,50,5)       254.06649                      2_GWF-(1,1,5)
         14          2          5      -2.6692458                     2_GWF-(2,51,1)       413.34187                     1_GWF-(2,4,14)
         15          2          6      -1.4199979                      2_GWF-(1,1,5)       287.22540                    2_GWF-(1,54,11)
         16          2          7      -1.4772574                      2_GWF-(1,1,4)      -275.79944                      2_GWF-(1,3,3)
         17          2          8      -1.5491853                      2_GWF-(1,1,3)      -259.48585                      2_GWF-(1,3,3)
         18          2          9      -1.2567288                     2_GWF-(1,63,2)      -216.11969                      2_GWF-(1,3,3)
         19          2         10     -0.67233786                    2_GWF-(3,26,15)       194.25864                     2_GWF-(1,15,1)
         20          2         11     -0.72982184                    2_GWF-(1,30,34)       177.69895                     2_GWF-(1,15,1)
         21          2         12     -0.75879694                    2_GWF-(1,30,34)       159.34185                     2_GWF-(1,15,1)
         22          2         13     -0.80391881                    2_GWF-(1,30,34)       148.33175                     2_GWF-(1,6,24)
         23          2         14     -0.61472973                    2_GWF-(1,30,34)       140.69494                     2_GWF-(1,6,24)
         24          2         15     -0.52286644                    2_GWF-(1,30,34)       130.92723                     2_GWF-(1,6,24)
         25          2         16     -0.46467168                    2_GWF-(1,73,44)       121.68093                     2_GWF-(1,6,24)
         26          2         17     -0.42614323                    2_GWF-(1,73,44)       112.37671                     2_GWF-(1,6,24)
         27          2         18     -0.29907999                    2_GWF-(1,73,44)       105.20230                     2_GWF-(1,6,24)
         28          2         19     -0.28953984                    2_GWF-(1,73,44)       97.286015                     2_GWF-(1,6,24)
         29          2         20     -0.17711148                    2_GWF-(1,73,44)       91.611710                     2_GWF-(1,6,24)
         30          2         21     -0.13810173                    2_GWF-(1,73,44)       85.798280                     2_GWF-(1,6,24)
         31          2         22     -0.10506638                    2_GWF-(1,73,44)       80.761603                     2_GWF-(1,6,24)
         32          2         23 -9.11181112E-02                    2_GWF-(1,73,44)       75.332320                     2_GWF-(1,6,24)
         33          2         24 -6.11715804E-02                    2_GWF-(1,73,44)       71.007059                     2_GWF-(1,6,24)
         34          2         25 -6.40658709E-02                    2_GWF-(1,70,38)       65.627021                     2_GWF-(1,6,24)
         35          2         26 -1.15957371E-02                     2_GWF-(1,75,2)       64.176327                     2_GWF-(1,6,24)
         36          2         27     -0.22722833                    2_GWF-(1,70,38)       27.312999                     2_GWF-(1,6,24)
         37          2         28  1.68329324E-02                     2_GWF-(1,75,2)       26.281191                     2_GWF-(1,6,24)
         38          2         29 -2.80232348E-02                     2_GWF-(1,6,24)       22.742900                     2_GWF-(1,6,24)
         39          2         30 -6.60081092E-02                     2_GWF-(1,6,24)      -14.555593                     2_GWF-(1,5,24)
         40          2         31 -3.12000995E-03                     1_GWF-(3,5,15)      -14.596388                     2_GWF-(1,5,24)
         41          2         32 -2.68302551E-03                     2_GWF-(1,5,24)      -14.960020                     2_GWF-(1,5,24)
         42          2         33 -6.95984224E-03                     2_GWF-(1,5,24)      -15.885840                     2_GWF-(1,5,24)
         43          2         34 -2.78109461E-02                     2_GWF-(1,5,24)       20.054029                     2_GWF-(1,6,24)
         44          2         35 -8.12570150E-02                     2_GWF-(1,5,24)       32.821506                     2_GWF-(1,6,24)
         45          2         36      0.46796063                     2_GWF-(1,5,24)      -40.708898                     2_GWF-(1,6,24)
         46          2         37  7.68110556E-03                    2_GWF-(1,75,85)      -40.148545                     2_GWF-(1,6,24)
         47          2         38     -0.17484988                     2_GWF-(1,5,24)      -12.666097                     2_GWF-(1,6,24)
         48          2         39 -5.19775414E-02                     2_GWF-(1,5,24)      -4.3935620                     2_GWF-(1,6,24)
         49          2         40  2.78286866E-02                     2_GWF-(1,6,24)       1.5183733                     2_GWF-(1,4,24)
         50          2         41  3.73449433E-03                     2_GWF-(1,5,24)       1.3783442                     2_GWF-(1,4,24)
         51          3          1      -3.0964702                     1_GWF-(1,13,4)       1415.5276                     1_GWF-(2,5,19)
         52          3          2     -0.62056016                     2_GWF-(1,49,6)       403.13322                    2_GWF-(1,59,17)
         53          3          3     -0.72543140                     2_GWF-(1,49,6)       528.43966                     1_GWF-(2,5,19)
         54          3          4     -0.72326418                     2_GWF-(1,49,6)       252.04133                    2_GWF-(1,59,17)
         55          3          5      -1.0726405                     2_GWF-(1,50,6)       375.18380                     1_GWF-(2,5,19)
         56          3          6     -0.51860858                     2_GWF-(1,50,6)       170.25343                     1_GWF-(2,5,19)
         57          3          7     -0.70193969                     2_GWF-(1,45,6)       252.05645                     1_GWF-(2,5,19)
         58          3          8     -0.15036871                     1_GWF-(3,5,19)      -132.35527                     2_GWF-(1,6,24)
         59          3          9  9.76487466E-02                     2_GWF-(1,45,6)      -133.81118                    2_GWF-(1,15,22)
         60          3         10      0.37517556                     2_GWF-(1,45,6)      -146.80154                    2_GWF-(1,15,22)
         61          3         11       1.8422676                     2_GWF-(1,45,6)      -211.06963                    2_GWF-(1,15,22)
         62          3         12       637.08079                     2_GWF-(1,45,6)      -23139.168                    2_GWF-(1,15,22)
         63          3         13      -645.84828                     2_GWF-(1,45,6)      -139.34670                     2_GWF-(2,46,6)
         64          3         14      -74.364731                     2_GWF-(1,45,6)       2765.3583                    2_GWF-(1,15,22)
         65          3         15       76.997195                     2_GWF-(1,45,6)      -50.540796                     2_GWF-(1,6,24)
         66          3         16      0.22939525                    2_GWF-(1,65,15)      -54.391677                     2_GWF-(1,6,24)
         67          3         17  9.37561581E-02                    2_GWF-(1,21,23)      -54.193048                     2_GWF-(1,6,24)
         68          3         18  5.30855314E-02                    2_GWF-(1,27,32)      -53.323962                     2_GWF-(1,6,24)
         69          3         19      0.15250792                     2_GWF-(1,5,22)      -44.022009                     1_GWF-(2,5,19)
         70          3         20  7.59787001E-02                     1_GWF-(1,22,6)      -34.679653                     2_GWF-(1,6,24)
         71          3         21 -1.58156061E-02                     1_GWF-(1,22,6)      -33.376747                     2_GWF-(1,6,24)
         72          3         22  2.36575651E-02                     2_GWF-(1,5,22)      -30.747343                     2_GWF-(1,6,24)
         73          3         23  3.15199046E-02                     2_GWF-(1,5,22)      -27.248841                     2_GWF-(1,6,24)
         74          3         24  3.91823477E-02                     2_GWF-(1,5,22)      -22.967458                     2_GWF-(1,6,24)
         75          3         25  5.37498969E-02                     2_GWF-(1,5,22)      -17.143571                     2_GWF-(1,6,24)
         76          3         26 -6.65975539E-03                     2_GWF-(1,5,22)      -17.867968                     2_GWF-(1,6,24)
         77          3         27  7.78397687E-02                     2_GWF-(1,5,22)      -9.7575220                     2_GWF-(1,6,24)
         78          3         28  4.58124166E-02                     2_GWF-(1,5,22)       7.6524084                     2_GWF-(1,5,24)
         79          3         29  3.46225562E-02                     2_GWF-(1,5,22)       6.4253377                     2_GWF-(1,5,24)
         80          3         30  2.45307199E-02                     2_GWF-(1,5,22)      -5.7415097                     2_GWF-(1,5,25)
         81          3         31  1.65441744E-02                     2_GWF-(1,46,6)      -5.1466810                     2_GWF-(1,5,25)
         82          3         32  8.57758349E-03                     2_GWF-(1,5,22)      -4.8576581                     2_GWF-(1,5,25)
         83          3         33 -8.41788860E-03                    2_GWF-(1,55,12)       4.6118608                     2_GWF-(2,5,24)
         84          3         34 -1.90159240E-03                     2_GWF-(1,6,24)       4.5214272                     2_GWF-(2,5,24)
         85          3         35 -5.37657940E-03                     2_GWF-(1,5,24)       4.3375141                     2_GWF-(2,5,24)
         86          3         36 -4.10650249E-03                     2_GWF-(1,5,24)       4.1691759                     2_GWF-(2,5,24)
         87          3         37 -3.90387299E-03                     2_GWF-(1,5,24)      -4.0023724                     2_GWF-(1,5,25)
         88          3         38 -3.85183818E-03                     2_GWF-(1,5,24)      -3.8598954                     2_GWF-(1,5,25)
         89          3         39 -4.28737346E-03                     2_GWF-(1,5,24)      -3.7008362                     2_GWF-(1,5,25)
         90          3         40 -5.38519617E-03                     2_GWF-(1,5,24)      -3.5000633                     2_GWF-(1,5,25)
         91          3         41 -6.09938715E-03                     2_GWF-(1,5,24)      -3.2714141                     2_GWF-(1,5,25)
         92          3         42 -6.81612580E-03                     2_GWF-(1,5,24)      -3.0141944                     2_GWF-(1,5,25)
         93          3         43 -7.38019874E-03                     2_GWF-(1,5,24)      -2.7330529                     2_GWF-(1,5,25)
         94          3         44 -9.39305108E-03                     2_GWF-(1,5,24)       2.4007066                     2_GWF-(1,5,24)
         95          3         45 -1.06636029E-02                     2_GWF-(1,5,24)       2.0668527                     2_GWF-(1,5,24)
         96          3         46 -1.08254320E-02                     2_GWF-(1,5,24)       1.7214273                     2_GWF-(1,5,24)
         97          3         47 -1.09544089E-02                     2_GWF-(1,5,24)      -2.0635863                     2_GWF-(1,6,24)
         98          3         48 -1.23632369E-03                    2_GWF-(1,64,16)      -1.9526754                     2_GWF-(1,6,24)
         99          3         49 -4.92649122E-03                     2_GWF-(1,5,24)      -2.1532473                     2_GWF-(1,6,24)
        100          3         50 -2.37225445E-03                     2_GWF-(1,5,24)      -2.1600258                     2_GWF-(1,6,24)
        101          3         51 -1.12522703E-03                     2_GWF-(1,5,24)      -2.1098340                     2_GWF-(1,6,24)
        102          3         52 -1.97956236E-03                    2_GWF-(1,64,16)      -1.9294434                     2_GWF-(1,6,24)
        103          3         53  6.57884355E-04                    1_GWF-(3,17,24)      -1.8776793                     2_GWF-(1,6,24)
        104          3         54 -1.33538760E-02                    2_GWF-(1,64,16)      0.69673764                     2_GWF-(1,5,24)
        105          3         55  3.40845520E-04                     1_GWF-(1,22,6)      0.69709997                     2_GWF-(1,5,24)
        106          3         56 -3.28708887E-04                    2_GWF-(1,64,16)      0.70419866                     2_GWF-(1,5,24)
        107          3         57 -2.25361576E-03                    2_GWF-(1,64,16)      0.77686630                     2_GWF-(1,4,25)
        108          3         58  6.25502898E-03                    2_GWF-(1,64,16)      0.61573115                     2_GWF-(1,5,24)
        109          4          1       3.9149531                    2_GWF-(3,13,12)       1346.8804                     2_GWF-(3,8,24)
        110          4          2      -5.2833918                     2_GWF-(3,8,24)       541.39454                    2_GWF-(3,23,11)
        111          4          3       1.4714665                     2_GWF-(2,8,24)      -153.72875                    2_GWF-(3,65,15)
        112          4          4     -0.58409659                    2_GWF-(3,12,12)      -107.16145                    2_GWF-(3,65,15)
        113          4          5     -0.40214987                    2_GWF-(3,10,14)      -73.033560                    2_GWF-(3,65,15)
        114          4          6     -0.14742396                     2_GWF-(2,57,7)      -54.576560                    2_GWF-(3,72,19)
        115          4          7 -8.39738898E-02                     2_GWF-(3,22,8)      -53.495651                    2_GWF-(3,72,19)
        116          4          8     -0.55141359                     2_GWF-(2,57,7)       34.157960                    2_GWF-(3,71,12)
        117          4          9     -0.41623570                     2_GWF-(2,3,46)      -48.659164                     2_GWF-(3,22,8)
        118          4         10      -5.6331719                     2_GWF-(2,3,46)      -965.92809                     2_GWF-(3,3,46)
        119          4         11       8.3382090                     2_GWF-(2,3,46)       493.95703                     2_GWF-(3,22,8)
        120          4         12      -3.1579061                     2_GWF-(2,22,8)       34.743169                    2_GWF-(3,72,19)
        121          4         13      -1.0690660                     2_GWF-(2,8,24)       57.514098                    2_GWF-(3,72,19)
        122          4         14      -1.0396391                     2_GWF-(2,8,24)       53.420881                    2_GWF-(4,18,38)
        123          4         15      0.36673382                    2_GWF-(3,73,75)       42.973935                    2_GWF-(4,18,38)
        124          4         16  5.33381056E-02                     2_GWF-(2,22,8)       42.547296                    2_GWF-(4,18,38)
        125          4         17     -0.23883807                    2_GWF-(1,69,75)       44.598713                    2_GWF-(4,18,38)
        126          4         18     -0.27508154                    2_GWF-(3,69,75)       43.351342                    2_GWF-(4,18,38)
        127          4         19     -0.56756159                    2_GWF-(3,69,75)       42.072706                    2_GWF-(4,18,38)
        128          4         20  9.77399996E-02                    2_GWF-(3,18,10)       42.563662                    2_GWF-(4,18,38)
        129          4         21     -0.73245735                    2_GWF-(3,74,23)       30.719960                    2_GWF-(3,70,61)
        130          4         22  1.63111160E-03                     2_GWF-(3,22,8)       30.727349                    2_GWF-(3,70,61)
        131          4         23     -0.16270795                    2_GWF-(3,74,23)       27.508990                    2_GWF-(4,20,38)
        132          4         24     -0.14234772                    2_GWF-(3,74,23)       25.339308                    2_GWF-(4,20,38)
        133          4         25     -0.19186424                    2_GWF-(3,74,23)       22.325044                    2_GWF-(4,20,38)
        134          4         26     -0.44914447                    2_GWF-(3,74,23)       44.428832                    2_GWF-(3,70,61)
        135          4         27     -0.54421321                    2_GWF-(3,74,23)      -27.040614                    2_GWF-(4,18,38)
        136          4         28      -1.3107188                    2_GWF-(3,74,23)      -72.661798                    2_GWF-(4,18,38)
        137          4         29       2.0682092                    2_GWF-(3,74,23)       14.852432                    2_GWF-(4,20,38)
        138          4         30     -0.11901120                    2_GWF-(3,23,11)      -49.419345                    2_GWF-(3,23,11)
        139          4         31  9.80294500E-02                    2_GWF-(3,23,11)       14.410183                    2_GWF-(4,20,38)
        140          4         32 -4.12061730E-02                    2_GWF-(3,73,26)       13.341858                    2_GWF-(4,20,38)
        141          4         33  2.68232474E-02                    2_GWF-(3,18,10)       12.689203                    2_GWF-(4,20,38)
        142          4         34 -9.68466530E-02                    2_GWF-(3,73,26)       10.084273                    2_GWF-(4,20,38)
        143          4         35  8.84744746E-03                    2_GWF-(3,23,11)       9.9743977                    2_GWF-(4,20,38)
        144          4         36 -2.55559943E-02                    2_GWF-(3,73,26)       9.3469515                    2_GWF-(4,20,38)
        145          4         37 -6.38997837E-03                    2_GWF-(3,23,11)       9.2553742                    2_GWF-(4,20,38)
        146          4         38 -6.95762927E-02                    2_GWF-(3,73,26)       7.6903434                    2_GWF-(4,73,26)
        147          4         39 -1.06911336E-02                    2_GWF-(3,23,10)       7.6838731                    2_GWF-(4,73,26)
        148          4         40 -2.76550909E-03                    2_GWF-(3,73,26)       7.6556127                    2_GWF-(4,73,26)
        149          4         41 -4.41325669E-03                    2_GWF-(3,23,11)       7.6861469                    2_GWF-(4,73,26)
        150          4         42  3.60073992E-03                    2_GWF-(3,23,11)       7.6785877                    2_GWF-(4,73,26)
        151          4         43  3.63240649E-03                    2_GWF-(3,73,26)       7.7169225                    2_GWF-(4,73,26)
        152          4         44 -3.67714609E-03                     2_GWF-(3,22,8)       7.6868455                    2_GWF-(4,73,26)
        153          4         45  3.18945354E-03                    2_GWF-(3,73,26)       7.7224323                    2_GWF-(4,73,26)
        154          4         46  7.14936772E-02                    2_GWF-(3,73,26)       9.0540370                    2_GWF-(4,20,38)
        155          4         47     -0.29451535                    2_GWF-(3,73,26)       5.1999715                    2_GWF-(4,73,26)
        156          4         48 -3.43185622E-02                    2_GWF-(3,73,26)       4.8061342                    2_GWF-(4,73,26)
        157          4         49      0.20252971                    2_GWF-(3,73,26)       7.1353766                    2_GWF-(4,73,26)
        158          4         50 -5.71830325E-03                    2_GWF-(3,73,26)       7.0698387                    2_GWF-(4,73,26)
        159          4         51     -0.34712908                    2_GWF-(3,73,26)       3.9791200                    2_GWF-(4,73,73)
        160          4         52  1.04423867E-02                     2_GWF-(3,22,8)       3.9433156                    2_GWF-(4,73,73)
        161          4         53 -5.83661418E-03                    2_GWF-(3,75,71)       3.9170558                    2_GWF-(4,73,73)
        162          4         54 -2.11554724E-02                    2_GWF-(3,75,71)       3.8203572                    2_GWF-(4,73,73)
        163          4         55  4.74679189E-04                     2_GWF-(3,22,8)       3.8208546                    2_GWF-(4,73,73)
        164          4         56 -5.46513607E-02                    2_GWF-(3,75,71)       3.5585054                    2_GWF-(4,73,73)
        165          4         57 -2.62806097E-02                    2_GWF-(3,75,71)       3.4326282                    2_GWF-(4,73,73)
        166          4         58 -1.32572041E-02                    2_GWF-(3,75,71)       3.3684791                    2_GWF-(4,73,73)
        167          4         59 -2.87475821E-02                    2_GWF-(3,75,71)       3.2288742                    2_GWF-(4,73,73)
        168          4         60      0.14965787                    2_GWF-(3,75,71)       3.9552353                    2_GWF-(4,73,73)
        169          4         61  4.32180691E-02                    2_GWF-(3,75,71)       4.1656211                    2_GWF-(4,73,73)
        170          4         62 -1.16285300E-02                    2_GWF-(3,75,71)       4.1090481                    2_GWF-(4,73,73)
        171          4         63     -0.21141171                    2_GWF-(3,75,71)       3.0796896                    2_GWF-(4,73,73)
        172          4         64 -6.66983776E-02                    2_GWF-(3,75,71)       2.7500197                    2_GWF-(4,73,73)
        173          4         65 -1.62685840E-02                    2_GWF-(3,75,71)       2.6690743                    2_GWF-(4,73,73)
        174          4         66 -2.79298005E-02                    2_GWF-(3,75,71)       2.5290163                    2_GWF-(4,73,73)
        175          4         67  1.63618875E-02                    2_GWF-(3,75,71)       2.6108300                    2_GWF-(4,73,73)
        176          4         68  2.97993616E-02                    2_GWF-(3,75,71)       2.7609988                    2_GWF-(4,73,73)
        177          4         69      0.28338073                    2_GWF-(3,75,71)       4.1890786                    2_GWF-(4,73,73)
        178          4         70     -0.49630999                    2_GWF-(3,75,71)       1.6866917                    2_GWF-(4,73,73)
        179          4         71  2.28660033E-02                    2_GWF-(3,75,71)       1.7973892                    2_GWF-(4,73,73)
        180          4         72  5.27042560E-02                    2_GWF-(3,75,71)       2.0658239                    2_GWF-(4,73,73)
        181          4         73 -8.40719227E-02                    2_GWF-(3,75,71)       1.6375950                    2_GWF-(4,73,73)
        182          4         74 -9.12794779E-02                    2_GWF-(3,75,71)       1.1708942                    2_GWF-(4,73,73)
        183          4         75 -2.03747713E-02                    2_GWF-(3,75,71)       1.0660754                    2_GWF-(4,73,73)
        184          4         76  3.77369807E-02                    2_GWF-(3,73,26)      0.87452652                    2_GWF-(4,73,73)
        185          4         77  1.05985573E-03                    2_GWF-(3,23,11)      0.87394745                    2_GWF-(4,73,73)
        186          4         78 -5.60704287E-04                    2_GWF-(3,75,71)      0.87159685                    2_GWF-(4,73,73)
        187          4         79  4.68542033E-04                     2_GWF-(3,22,8)      0.87104822                    2_GWF-(4,73,73)
        188          4         80 -1.13874292E-04                     2_GWF-(3,22,8)      0.87127042                    2_GWF-(4,73,73)
        189          4         81  2.38522217E-02                    2_GWF-(3,75,71)      0.98656147                    2_GWF-(4,73,73)
        190          4         82 -5.56516025E-03                    2_GWF-(3,75,71)      0.95799671                    2_GWF-(4,73,73)
        191          4         83 -2.46944136E-04                    2_GWF-(3,75,71)      0.95664985                    2_GWF-(4,73,73)
        192          4         84 -2.04494893E-02                    2_GWF-(3,73,73)      0.83822575                    2_GWF-(4,73,73)
        193          4         85 -7.82252603E-03                    2_GWF-(3,73,73)      0.79474029                    2_GWF-(4,73,73)
        194          4         86  1.82294016E-03                    2_GWF-(3,73,73)      0.80488530                    2_GWF-(4,73,73)
        195          4         87 -9.53454473E-03                    2_GWF-(3,73,73)      0.75180086                    2_GWF-(4,73,73)
        196          4         88 -4.15909938E-04                    2_GWF-(3,73,73)      0.74944012                    2_GWF-(4,73,73)
        197          4         89  1.13667142E-02                    2_GWF-(3,73,73)      0.81282706                    2_GWF-(4,73,73)
        198          4         90 -3.46543890E-02                    2_GWF-(3,73,73)      0.61957459                    2_GWF-(4,73,73)
        199          4         91 -8.53763759E-02                    2_GWF-(3,73,73)     -0.36958922                    2_GWF-(4,75,72)
        200          5          1       52.864760                    2_GWF-(2,16,22)      -15925.195                    2_GWF-(4,19,26)
        201          5          2       55.919260                    2_GWF-(2,16,22)      -18565.572                    2_GWF-(4,21,26)
        202          5          3      -74.935163                    2_GWF-(2,16,22)       4769.3240                    2_GWF-(2,16,22)
        203          5          4      -23.705743                    2_GWF-(2,16,22)       1435.6433                    2_GWF-(2,16,22)
        204          5          5      -8.8140135                    2_GWF-(2,16,22)       182.80031                    2_GWF-(2,16,22)
        205          5          6      -1.2575421                    2_GWF-(2,16,22)       46.278137                    2_GWF-(4,74,69)
        206          5          7     -0.24527786                    2_GWF-(2,16,22)       47.796993                    2_GWF-(4,19,27)
        207          5          8     -0.14460196                    2_GWF-(2,15,23)       72.596042                    2_GWF-(4,21,26)
        208          5          9  3.96772610E-02                    2_GWF-(2,15,23)       51.386654                    2_GWF-(4,21,26)
        209          5         10 -7.33372226E-02                    2_GWF-(2,15,23)       78.492371                    2_GWF-(4,21,26)
        210          5         11      0.91716371                    2_GWF-(2,16,22)      -117.76272                    2_GWF-(2,15,23)
        211          5         12      -1.0846712                    2_GWF-(2,16,22)       94.549003                    2_GWF-(4,21,26)
        212          5         13 -4.95829548E-02                    2_GWF-(2,15,23)       109.38852                    2_GWF-(4,21,26)
        213          5         14     -0.28851641                    2_GWF-(2,17,22)       156.21570                    2_GWF-(4,21,26)
        214          5         15 -6.14594553E-02                    2_GWF-(2,15,24)       175.19874                    2_GWF-(4,21,26)
        215          5         16     -0.29068270                    2_GWF-(4,72,73)       159.47835                    2_GWF-(4,21,26)
        216          5         17  7.61630376E-02                    2_GWF-(2,16,22)       130.15703                    2_GWF-(4,21,26)
        217          5         18     -0.27941782                    2_GWF-(4,72,73)       156.18943                    2_GWF-(4,19,27)
        218          5         19     -0.30060073                    2_GWF-(4,72,73)       212.79699                    2_GWF-(4,19,27)
        219          5         20      0.15263608                    2_GWF-(4,72,73)       178.23480                    2_GWF-(4,19,27)
        220          5         21     -0.44375238                    2_GWF-(4,72,73)       286.78155                    2_GWF-(4,19,27)
        221          5         22      0.24927493                    2_GWF-(2,16,22)       276.15265                    2_GWF-(4,19,27)
        222          5         23     -0.36582784                    2_GWF-(2,16,22)      -374.09860                    2_GWF-(4,20,26)
        223          5         24     -0.29801855                    2_GWF-(4,19,27)       230.31783                    2_GWF-(4,21,26)
        224          5         25     -0.18941694                    2_GWF-(4,21,26)      -144.25298                    2_GWF-(4,20,26)
        225          5         26     -0.12504076                    2_GWF-(4,21,26)       137.83739                    2_GWF-(4,19,27)
        226          5         27      0.14371051                    2_GWF-(2,16,22)       138.41518                    2_GWF-(4,19,27)
        227          5         28 -8.98890797E-02                    2_GWF-(2,16,22)       152.56575                    2_GWF-(4,19,27)
        228          5         29     -0.13707259                    2_GWF-(2,17,22)       77.256310                    2_GWF-(4,19,27)
        229          5         30 -2.52026629E-02                    2_GWF-(2,16,22)       77.610021                    2_GWF-(4,19,27)
        230          5         31 -4.38197170E-02                     2_GWF-(2,8,85)      -85.611186                    2_GWF-(4,20,26)
        231          5         32 -3.12704884E-02                    2_GWF-(4,74,20)      -88.555234                    2_GWF-(4,20,26)
        232          5         33  2.41266235E-02                    2_GWF-(2,15,23)      -89.014573                    2_GWF-(4,20,26)
        233          5         34  5.80898569E-02                    2_GWF-(2,16,22)      -96.282679                    2_GWF-(4,20,26)
        234          5         35 -8.33406801E-02                    2_GWF-(2,16,22)      -99.533073                    2_GWF-(4,20,26)
        235          5         36 -6.02698305E-02                    2_GWF-(4,21,26)      -86.260918                    2_GWF-(4,20,26)
        236          5         37 -6.02044173E-02                    2_GWF-(4,74,21)      -103.06540                    2_GWF-(4,20,26)
        237          5         38  8.90529460E-03                    2_GWF-(2,16,22)      -104.22452                    2_GWF-(4,20,26)
        238          5         39  2.24663982E-03                    2_GWF-(4,18,40)      -104.87759                    2_GWF-(4,20,26)
        239          5         40  2.77411013E-02                     1_GWF-(4,22,8)      -95.962808                    2_GWF-(4,20,26)
        240          5         41 -3.43918911E-02                     1_GWF-(4,22,8)      -97.322042                    2_GWF-(4,20,26)
        241          5         42 -2.52583695E-02                    2_GWF-(4,24,35)      -91.145079                    2_GWF-(4,20,26)
        242          5         43 -3.89935312E-02                    2_GWF-(2,17,22)      -88.162843                    2_GWF-(4,20,26)
        243          5         44     -0.18035986                    2_GWF-(4,24,36)      -81.464355                    2_GWF-(4,21,26)
        244          5         45  3.77385003E-02                    2_GWF-(2,16,22)      -81.446339                    2_GWF-(4,21,26)
        245          5         46  3.32577070E-02                    2_GWF-(2,15,23)      -81.712357                    2_GWF-(4,21,26)
        246          5         47  5.19726766E-02                    2_GWF-(4,24,36)      -80.365493                    2_GWF-(4,20,26)
        247          5         48     -0.17083273                    2_GWF-(4,74,21)      -72.045300                    2_GWF-(4,20,26)
        248          5         49 -2.66633410E-03                    2_GWF-(2,16,22)      -72.094889                    2_GWF-(4,20,26)
        249          5         50     -0.17657459                    2_GWF-(4,74,21)      -72.298272                    2_GWF-(4,21,26)
        250          5         51 -4.81968839E-02                    2_GWF-(4,74,21)      -68.488585                    2_GWF-(4,21,26)
        251          5         52 -7.52465219E-02                    2_GWF-(4,75,23)      -63.912209                    2_GWF-(4,21,26)
        252          5         53     -0.21261287                    2_GWF-(4,75,23)      -56.689075                    2_GWF-(4,20,26)
        253          5         54 -5.58623759E-02                    2_GWF-(4,75,23)      -53.907360                    2_GWF-(4,20,26)
        254          5         55     -0.33579401                    2_GWF-(4,75,23)      -43.580552                    2_GWF-(4,20,26)
        255          5         56     -0.27561853                    2_GWF-(4,75,23)      -37.484733                    2_GWF-(4,73,21)
        256          5         57      0.64318484                    2_GWF-(4,75,23)      -58.651285                    2_GWF-(4,21,26)
        257          5         58     -0.85179758                    2_GWF-(4,75,23)      -36.130496                    2_GWF-(4,20,26)
        258          5         59     -0.25267944                    2_GWF-(4,75,23)       29.702162                    2_GWF-(4,19,27)
        259          5         60  1.12073942E-02                    2_GWF-(2,16,22)       30.310534                    2_GWF-(4,19,27)
        260          5         61       1.0032462                    2_GWF-(4,75,23)      -76.408643                    2_GWF-(4,20,26)
        261          5         62      -1.1632680                    2_GWF-(4,75,23)      -27.203403                    2_GWF-(4,20,26)
        262          5         63     -0.20321506                    2_GWF-(4,75,23)       29.024195                    2_GWF-(4,21,26)
        263          5         64 -5.89787052E-02                    2_GWF-(4,74,76)      -20.518900                    2_GWF-(4,58,73)
        264          5         65 -4.25239164E-02                    2_GWF-(2,16,22)       24.114310                    2_GWF-(4,21,26)
        265          5         66  6.28414910E-03                    2_GWF-(2,16,22)       22.237877                    2_GWF-(4,21,26)
        266          5         67 -2.04921726E-02                    2_GWF-(2,46,85)      -19.493631                    2_GWF-(4,58,73)
        267          5         68 -9.64097404E-02                    2_GWF-(4,75,23)       24.709384                    2_GWF-(4,21,26)
        268          5         69 -9.39724729E-02                    2_GWF-(4,74,71)       19.392234                    2_GWF-(4,21,26)
        269          5         70     -0.13564428                    2_GWF-(4,74,71)      -17.071043                    2_GWF-(4,74,21)
        270          5         71       1.7637121                    2_GWF-(4,74,71)       115.30703                    2_GWF-(4,19,27)
        271          5         72      -1.5807635                    2_GWF-(4,74,71)       27.997716                    2_GWF-(4,21,26)
        272          5         73 -8.87493006E-02                    2_GWF-(4,74,76)       24.000875                    2_GWF-(4,21,26)
        273          5         74 -4.38878836E-02                    2_GWF-(4,74,76)       22.596955                    2_GWF-(4,21,26)
        274          5         75  7.15198328E-02                    2_GWF-(4,74,21)       18.705258                    2_GWF-(4,21,26)
        275          5         76  2.11556751E-02                    2_GWF-(2,46,85)       18.884909                    2_GWF-(4,21,26)
        276          5         77  3.11623581E-02                    2_GWF-(4,74,21)       19.489118                    2_GWF-(4,21,26)
        277          5         78  4.21439310E-02                    2_GWF-(2,16,22)      -12.561876                    2_GWF-(4,74,21)
        278          5         79 -1.43567551E-02                    2_GWF-(2,16,22)       14.128884                    2_GWF-(4,21,26)
        279          5         80  3.24734084E-02                    2_GWF-(2,16,22)      -12.218634                    2_GWF-(4,74,21)
        280          5         81 -1.65911595E-02                    2_GWF-(2,16,22)      -12.233225                    2_GWF-(4,74,21)
        281          5         82      0.54223513                    2_GWF-(4,74,21)      -13.820452                    2_GWF-(4,21,26)
        282          5         83 -2.86890509E-03                    2_GWF-(2,16,22)      -13.436329                    2_GWF-(4,21,26)
        283          5         84  4.44930202E-02                    2_GWF-(4,72,26)      -9.9937597                    2_GWF-(4,21,26)
        284          5         85  3.78069025E-02                    2_GWF-(4,72,26)      -8.4450006                    2_GWF-(4,21,26)
        285          5         86 -1.21825586E-03                    2_GWF-(2,16,22)      -8.2991760                    2_GWF-(4,21,26)
        286          5         87  1.22988448E-02                    2_GWF-(4,75,22)      -6.0813628                    2_GWF-(4,21,26)
        287          5         88  1.23537188E-02                    2_GWF-(4,75,22)      -5.3566155                    2_GWF-(4,21,26)
        288          5         89  5.04778070E-02                    2_GWF-(4,75,22)      -4.5644779                    2_GWF-(4,21,26)
        289          5         90 -6.63789252E-03                    2_GWF-(4,75,22)      -3.7516432                    2_GWF-(4,21,26)
        290          5         91     -0.20509315                    2_GWF-(4,75,22)      -9.8509425                    2_GWF-(4,21,26)
        291          5         92      0.26841192                    2_GWF-(4,75,22)      -5.0498240                    2_GWF-(4,20,26)
        292          5         93  1.46083167E-02                    2_GWF-(2,16,22)      -3.0605631                    2_GWF-(4,21,26)
        293          5         94  8.12773985E-04                    2_GWF-(2,46,85)      -3.1441815                    2_GWF-(4,21,26)
        294          5         95  1.96374386E-03                    2_GWF-(4,75,22)      -3.1752144                    2_GWF-(4,21,26)
        295          5         96 -4.24777212E-03                    2_GWF-(2,16,22)      -2.8303802                    2_GWF-(4,20,26)
        296          5         97  2.57411322E-02                    2_GWF-(4,75,22)      -2.3064564                    2_GWF-(4,72,26)
        297          5         98  1.37128774E-02                    2_GWF-(4,72,73)      -3.0240372                    2_GWF-(4,20,26)
        298          5         99  5.11212937E-02                    2_GWF-(4,75,22)      -2.3460810                    2_GWF-(4,20,26)
        299          5        100     -0.34986802                    2_GWF-(4,75,22)      -5.1355636                    2_GWF-(4,20,26)
        300          6          1     -0.85655453                    2_GWF-(1,75,20)       139.26006                     1_GWF-(2,13,3)
        301          6          2      0.61050262                    2_GWF-(4,56,68)       47.644851                     1_GWF-(2,13,3)
        302          6          3     -0.17129516                    2_GWF-(4,56,68)       15.753945                     1_GWF-(2,13,3)
        303          6          4 -4.54492907E-02                    2_GWF-(4,18,36)      -7.3599592                    2_GWF-(2,46,85)
        304          6          5 -3.55234713E-02                    2_GWF-(4,56,68)      -1.2826041                    2_GWF-(2,46,85)
        305          6          6 -5.72850476E-02                    2_GWF-(4,18,36)      -1.2911198                    2_GWF-(2,46,85)
        306          6          7     -0.10357995                    2_GWF-(4,18,36)      -1.2585151                     1_GWF-(2,13,3)
        307          6          8  1.94577401E-02                    2_GWF-(4,18,36)       1.2217913                    1_GWF-(2,16,23)
        308          6          9     -0.18477457                    2_GWF-(4,18,36)       1.1534557                    1_GWF-(2,16,23)
        309          6         10 -3.83578312E-02                    2_GWF-(4,57,61)      0.64404710                    1_GWF-(2,16,23)
        310          6         11 -1.47457243E-02                    2_GWF-(4,57,61)      0.39933740                    1_GWF-(2,16,23)
        311          6         12 -9.92745254E-03                    2_GWF-(4,57,61)      0.23717781                    1_GWF-(5,21,16)
        312          6         13 -9.03175903E-03                    2_GWF-(4,57,61)      0.14542847                    1_GWF-(5,21,16)
        313          6         14 -5.82635977E-03                    2_GWF-(4,57,61)  8.44211683E-02                    1_GWF-(5,21,16)
        314          6         15 -2.50099080E-03                    2_GWF-(4,72,72)  5.85400662E-02                    1_GWF-(5,21,16)
        315          6         16 -1.33599077E-03                    2_GWF-(4,72,72) -4.80414382E-02                     2_GWF-(4,75,1)
        316          6         17  9.56925623E-04                    2_GWF-(4,18,36) -4.24690487E-02                     2_GWF-(4,75,1)
        317          6         18  1.01856521E-03                    2_GWF-(4,18,36) -5.70130950E-02                     2_GWF-(4,75,1)
        318          6         19 -6.03388887E-04                    2_GWF-(4,71,72)  2.92346522E-02                    1_GWF-(5,21,16)
        319          6         20 -3.69069114E-04                    2_GWF-(4,18,36)  6.90866697E-02                     2_GWF-(4,75,1)
        320          6         21 -1.08305498E-02                    2_GWF-(4,18,36)      0.10213986                    1_GWF-(5,21,16)
        321          6         22  1.75579810E-02                    2_GWF-(4,18,36) -1.23720282E-02                    1_GWF-(5,21,16)
        322          7          1     -0.68720669                    2_GWF-(1,72,71)      -46.109832                     1_GWF-(3,13,3)
        323          7          2     -0.13660557                    2_GWF-(1,72,71)      -14.742163                     1_GWF-(3,13,3)
        324          7          3 -4.69393037E-02                    2_GWF-(1,72,71)      -4.2595565                     1_GWF-(3,13,3)
        325          7          4 -2.36436787E-02                    2_GWF-(5,37,43)      -3.6587677                    2_GWF-(2,46,85)
        326          7          5 -2.07693669E-02                    2_GWF-(4,56,62)      -1.2278627                    2_GWF-(2,46,85)
        327          7          6 -3.31579023E-02                    2_GWF-(4,56,62)     -0.97846017                    2_GWF-(2,46,85)
        328          7          7 -4.50840926E-02                    2_GWF-(4,56,62)      0.54571256                    1_GWF-(5,21,16)
        329          7          8 -4.93595261E-02                    2_GWF-(4,56,62)     -0.60365141                    1_GWF-(3,16,23)
        330          7          9 -1.74680529E-02                    2_GWF-(4,68,72)      0.60565717                    1_GWF-(2,10,23)
        331          7         10 -5.81564680E-02                    2_GWF-(4,75,20)      0.72119987                    1_GWF-(2,16,23)
        332          7         11 -2.17266290E-02                    2_GWF-(4,75,20)      0.18740739                    1_GWF-(5,22,17)
        333          7         12 -2.23696536E-02                    2_GWF-(4,75,20) -9.69874809E-02                    2_GWF-(2,46,85)
        334          7         13 -1.09465353E-02                    2_GWF-(4,75,20)  4.38637847E-02                     1_GWF-(5,22,8)
        335          7         14 -5.93719419E-03                    2_GWF-(4,75,20)  2.64513391E-02                     1_GWF-(5,18,2)
        336          7         15 -5.00720264E-03                    2_GWF-(4,75,20) -3.35842547E-02                    1_GWF-(2,10,23)
        337          7         16  1.94036624E-03                    2_GWF-(4,56,62) -1.95487766E-02                    2_GWF-(2,52,85)
        338          7         17 -6.87973918E-04                    2_GWF-(4,75,20) -9.80896517E-03                    1_GWF-(1,12,24)
        339          8          1      0.44803100                    2_GWF-(4,72,71)       22.457057                    1_GWF-(1,12,24)
        340          8          2      0.62737080                    2_GWF-(4,71,71)      -6.5709422                    2_GWF-(2,28,40)
        341          8          3     -0.20711083                    2_GWF-(4,71,71)       1.9642329                    2_GWF-(1,43,40)
        342          8          4  3.43479939E-02                    2_GWF-(4,71,71)      -2.7763412                    2_GWF-(2,46,85)
        343          8          5 -1.66743247E-02                    2_GWF-(4,56,61)      -1.1126222                    2_GWF-(2,46,85)
        344          8          6 -2.83150010E-02                    2_GWF-(4,56,61)      -1.2884896                    2_GWF-(2,46,85)
        345          8          7 -3.61212087E-02                    2_GWF-(4,56,61)     -0.51342618                    2_GWF-(2,46,85)
        346          8          8 -3.63394670E-02                    2_GWF-(4,56,61)     -0.46711568                    1_GWF-(3,16,23)
        347          8          9 -9.31476098E-03                    2_GWF-(4,71,71)      0.65232927                    1_GWF-(2,16,23)
        348          8         10 -3.48952043E-02                    2_GWF-(4,56,65)      0.78140329                    1_GWF-(2,16,23)
        349          8         11 -2.04258847E-02                    2_GWF-(4,73,21)      0.26056587                    1_GWF-(2,10,23)
        350          8         12 -2.08946518E-02                    2_GWF-(4,73,21)     -0.22451128                    2_GWF-(2,52,85)
        351          8         13 -9.52032739E-03                    2_GWF-(4,73,21)  6.45247910E-02                    1_GWF-(5,21,16)
        352          8         14 -1.03728041E-02                    2_GWF-(4,73,21) -6.52917799E-02                    2_GWF-(2,52,85)
        353          8         15 -3.73930031E-03                    2_GWF-(4,73,21) -1.75055312E-02                    1_GWF-(2,10,23)
        354          8         16 -2.49392414E-03                    2_GWF-(4,73,21)  2.36715646E-02                     2_GWF-(4,75,1)
        355          8         17 -4.61331136E-04                    2_GWF-(4,73,21) -1.35160117E-02                    1_GWF-(2,10,23)
        356          8         18 -4.77184610E-04                    2_GWF-(4,73,21) -1.21252566E-02                    1_GWF-(2,10,23)
        357          8         19  6.03355290E-05                    2_GWF-(4,73,21) -1.19303633E-02                    1_GWF-(2,10,23)
        358          9          1     -0.12304730                    2_GWF-(2,33,37)       30.209650                    1_GWF-(1,12,24)
        359          9          2     -0.15685856                    2_GWF-(4,56,60)      -5.7562004                    1_GWF-(2,12,24)
        360          9          3  2.85148672E-02                    2_GWF-(4,56,60)       1.5887652                    2_GWF-(1,43,40)
        361          9          4 -1.59924523E-02                    2_GWF-(4,56,60)      -1.8620446                    2_GWF-(2,46,85)
        362          9          5 -4.03548968E-02                    2_GWF-(4,56,60)      -1.6753478                    2_GWF-(2,46,85)
        363          9          6 -3.47926023E-02                    2_GWF-(4,56,60)      0.42084287                    2_GWF-(1,28,69)
        364          9          7      0.13030559                    2_GWF-(4,56,60)      0.92527549                    2_GWF-(1,29,48)
        365          9          8     -0.16774261                    2_GWF-(4,56,60)      0.41443793                    1_GWF-(2,10,23)
        366          9          9 -4.60500993E-02                    2_GWF-(4,56,60)      0.33733468                    1_GWF-(2,10,23)
        367          9         10 -1.53470610E-02                    2_GWF-(4,73,21)      0.27196170                    1_GWF-(2,10,23)
        368          9         11 -4.03232834E-02                    2_GWF-(4,56,60)     -0.33297873                    2_GWF-(4,56,60)
        369          9         12  1.76873902E-02                    2_GWF-(4,56,60)  8.86930807E-02                    1_GWF-(5,21,16)
        370          9         13 -1.70496630E-02                    2_GWF-(4,56,60)     -0.13611426                    2_GWF-(4,56,60)
        371          9         14  8.34474596E-03                    2_GWF-(4,56,60)  2.77392214E-02                     1_GWF-(5,18,2)
        372          9         15 -5.67496820E-03                    2_GWF-(4,56,60) -4.73568119E-02                    2_GWF-(4,56,60)
        373          9         16 -2.54383681E-03                    2_GWF-(4,73,21) -1.79988759E-02                    2_GWF-(4,56,60)
        374          9         17 -2.03291565E-03                    2_GWF-(4,56,60) -3.54182893E-02                    2_GWF-(4,56,60)
        375          9         18  2.69021535E-03                    2_GWF-(4,56,60) -9.62452634E-03                    1_GWF-(2,10,23)
        376          9         19  8.54108545E-04                    2_GWF-(4,56,60) -7.66217528E-03                    1_GWF-(2,10,23)
        377          9         20 -1.63940944E-03                    2_GWF-(4,73,21)  4.92560727E-03                    2_GWF-(2,46,85)
        378         10          1     -0.11227951                    2_GWF-(2,33,37)       20.381842                    1_GWF-(1,12,24)
        379         10          2     -0.10961202                    2_GWF-(4,73,21)      -5.2465414                    1_GWF-(2,12,24)
        380         10          3  2.21419275E-02                    2_GWF-(4,73,21)       1.5995709                    1_GWF-(2,12,23)
        381         10          4 -1.34943874E-02                    2_GWF-(4,56,60)      0.89666315                    2_GWF-(1,30,53)
        382         10          5 -2.78746553E-02                    2_GWF-(4,56,60)      0.66743622                    1_GWF-(2,11,23)
        383         10          6  1.94658342E-02                    2_GWF-(4,56,60)      -1.3860393                    2_GWF-(2,46,85)
        384         10          7 -7.33542003E-02                    2_GWF-(4,56,60)      0.44917974                    1_GWF-(2,10,23)
        385         10          8 -3.72948719E-02                    2_GWF-(4,56,60)      0.44591597                    1_GWF-(2,10,23)
        386         10          9 -1.27576926E-02                    2_GWF-(4,73,21)     -0.44596959                    1_GWF-(3,11,23)
        387         10         10 -1.93012508E-02                    2_GWF-(4,73,21)      0.28232221                    1_GWF-(1,12,24)
        388         10         11 -2.55667362E-02                    2_GWF-(4,73,21)     -0.28171111                    1_GWF-(3,11,23)
        389         10         12 -2.95023108E-02                    2_GWF-(4,73,21)     -0.12311662                     1_GWF-(2,5,19)
        390         10         13  1.01220011E-03                    2_GWF-(4,56,60)      0.19588712                     1_GWF-(3,5,19)
        391         10         14 -2.58349383E-02                    2_GWF-(4,73,21)  5.37287317E-02                    1_GWF-(2,10,23)
        392         10         15 -8.47724710E-03                    2_GWF-(4,73,21)  2.23630544E-02                     1_GWF-(5,18,2)
        393         10         16 -4.43679867E-03                    2_GWF-(4,73,21) -2.39453178E-02                    1_GWF-(3,10,22)
        394         10         17 -1.79617630E-03                    2_GWF-(4,73,21) -1.72741277E-02                    1_GWF-(1,12,24)
        395         10         18 -1.13422217E-03                    2_GWF-(4,73,21)  1.67606956E-02                     2_GWF-(4,75,1)
        396         10         19 -8.01063176E-04                    2_GWF-(4,73,21) -1.33016351E-02                    1_GWF-(2,10,23)
        397         10         20 -1.16993649E-03                    2_GWF-(4,73,21) -1.55882322E-02                     2_GWF-(4,75,1)
        398         10         21 -7.07084963E-04                    2_GWF-(4,73,21) -5.96876706E-03                    1_GWF-(2,10,23)
        399         11          1 -9.81132672E-02                    2_GWF-(1,32,36)       29.343596                    1_GWF-(1,12,23)
        400         11          2  5.29915048E-02                    2_GWF-(2,46,85)      -8.7814201                    1_GWF-(2,12,23)
        401         11          3 -1.32586757E-02                    2_GWF-(3,27,45)       1.9951304                    1_GWF-(1,12,23)
        402         11          4 -1.62824992E-02                    2_GWF-(5,37,45)      -1.7139453                    2_GWF-(2,46,85)
        403         11          5 -1.39161343E-02                    2_GWF-(4,55,59)      0.42371444                    2_GWF-(1,29,48)
        404         11          6 -2.03152128E-02                    2_GWF-(4,55,59)      0.49117059                    1_GWF-(2,11,22)
        405         11          7 -2.12773510E-02                    2_GWF-(4,55,59)      0.27905251                    2_GWF-(1,28,69)
        406         11          8 -2.09441552E-02                    2_GWF-(4,56,67)      0.51651145                    1_GWF-(2,11,22)
        407         11          9 -1.34214137E-02                    2_GWF-(4,56,67)      0.28116694                    1_GWF-(2,10,23)
        408         11         10 -2.09588458E-02                    2_GWF-(4,56,67)      0.24738658                    1_GWF-(2,10,23)
        409         11         11 -1.19132211E-02                    2_GWF-(4,75,20)      0.42958661                    1_GWF-(2,11,22)
        410         11         12 -1.53392572E-02                    2_GWF-(4,75,20)  8.34606628E-02                    1_GWF-(5,21,16)
        411         11         13 -1.15976525E-02                    2_GWF-(4,75,20)      0.10124286                    1_GWF-(2,11,22)
        412         11         14 -5.69161807E-03                    2_GWF-(4,75,20)  2.35146345E-02                     1_GWF-(5,18,2)
        413         11         15 -4.37009808E-03                    2_GWF-(4,75,20)  2.85031924E-02                    1_GWF-(2,11,22)
        414         11         16 -1.74893905E-03                    2_GWF-(4,75,20) -1.38302593E-02                    1_GWF-(2,10,23)
        415         11         17 -1.03768330E-03                    2_GWF-(4,75,20)  1.56334420E-02                    1_GWF-(2,11,22)
        416         11         18 -4.32698101E-04                    2_GWF-(4,75,20) -1.09564809E-02                    1_GWF-(2,10,23)
        417         11         19 -5.22394949E-04                    2_GWF-(4,75,20) -8.67932624E-03                    1_GWF-(2,10,23)
        418         11         20 -8.95665549E-05                    2_GWF-(4,75,20) -9.25715980E-03                    1_GWF-(2,11,22)
        419         12          1      0.22317925                    2_GWF-(4,55,59)      -24.256732                    1_GWF-(2,11,22)
        420         12          2      0.12318694                    2_GWF-(4,55,59)      -5.8085241                    2_GWF-(2,46,85)
        421         12          3     -0.26129856                    2_GWF-(4,55,59)       1.9082216                    1_GWF-(1,12,23)
        422         12          4  8.34259348E-02                    2_GWF-(4,55,59)       2.1015030                    2_GWF-(4,55,59)
        423         12          5  5.27694860E-02                    2_GWF-(4,55,59)       2.7659226                    2_GWF-(4,55,59)
        424         12          6     -0.21935445                    2_GWF-(4,55,59)      0.96077749                    2_GWF-(4,55,59)
        425         12          7     -0.10394347                    2_GWF-(4,55,59)      0.41405484                    1_GWF-(2,11,22)
        426         12          8 -3.39684251E-02                    2_GWF-(4,55,59)      0.55494789                    1_GWF-(2,11,22)
        427         12          9 -4.67320854E-02                    2_GWF-(4,55,59)      0.26968726                    1_GWF-(1,12,24)
        428         12         10 -2.04545431E-02                    2_GWF-(4,55,59)      0.31761806                    1_GWF-(2,11,22)
        429         12         11 -2.55643173E-02                    2_GWF-(4,55,59)      0.19650749                    1_GWF-(2,10,23)
        430         12         12 -1.64033071E-02                    2_GWF-(4,75,20)      0.13996519                    1_GWF-(2,11,22)
        431         12         13 -1.26691504E-02                    2_GWF-(4,55,59)  7.66221892E-02                    1_GWF-(2,10,23)
        432         12         14 -8.41145549E-03                    2_GWF-(4,75,20)  4.14456047E-02                    1_GWF-(5,21,16)
        433         12         15 -5.61399494E-03                    2_GWF-(4,75,20)  2.53394153E-02                     1_GWF-(5,18,2)
        434         12         16 -3.81684768E-03                    2_GWF-(4,75,20) -2.09435179E-02                    1_GWF-(1,12,24)
        435         12         17  3.45773082E-03                    2_GWF-(4,55,59)  3.53011277E-02                    2_GWF-(4,55,59)
        436         12         18 -3.45209540E-03                    2_GWF-(4,55,59) -1.94001507E-02                    1_GWF-(1,12,24)
        437         12         19  5.57615038E-03                    2_GWF-(4,55,59)  4.81004044E-02                    2_GWF-(4,55,59)
        438         12         20 -5.13789654E-03                    2_GWF-(4,55,59) -6.16923081E-03                    1_GWF-(2,10,23)
        439         12         21 -1.85597669E-04                    2_GWF-(4,55,59) -4.80645316E-03                    1_GWF-(2,10,23)
        440         13          1 -7.57907319E-02                    2_GWF-(4,54,59)      -17.695630                    1_GWF-(2,11,22)
        441         13          2 -2.24728492E-02                    2_GWF-(1,33,85)      -2.4722022                    2_GWF-(2,28,40)
        442         13          3     -0.13637274                    2_GWF-(1,27,44)      -23.952827                    1_GWF-(3,11,22)
        443         13          4      0.11038107                    2_GWF-(1,27,44)       1.1765530                    1_GWF-(2,11,22)
        444         13          5 -1.37586353E-02                    2_GWF-(4,55,59)      0.42859812                    1_GWF-(3,11,22)
        445         13          6 -1.69456199E-02                    2_GWF-(4,55,60)      0.31278843                    1_GWF-(3,11,22)
        446         13          7 -1.79891787E-02                    2_GWF-(4,55,59)      0.25982594                    1_GWF-(1,12,24)
        447         13          8 -2.15817197E-02                    2_GWF-(4,55,59)      0.24913004                    1_GWF-(1,12,24)
        448         13          9 -1.64414639E-02                    2_GWF-(4,75,20)      0.37074024                    1_GWF-(3,14,22)
        449         13         10 -1.20901342E-02                    2_GWF-(4,75,20)      0.13047048                    1_GWF-(2,10,23)
        450         13         11 -1.38609042E-02                    2_GWF-(4,75,20)  7.59365746E-02                    1_GWF-(3,14,22)
        451         13         12 -9.41010720E-03                    2_GWF-(4,75,20)  3.37365937E-02                    1_GWF-(5,21,16)
        452         13         13 -7.15683608E-03                    2_GWF-(4,75,20)  2.70382490E-02                    1_GWF-(3,14,22)
        453         13         14 -4.20590249E-03                    2_GWF-(4,75,20)  1.23303913E-02                     1_GWF-(5,18,2)
        454         13         15 -2.82868216E-03                    2_GWF-(4,75,20) -1.26402171E-02                    1_GWF-(1,12,24)
        455         13         16 -1.18782403E-03                    2_GWF-(4,75,20) -1.26790983E-02                    1_GWF-(1,12,24)
        456         13         17 -7.48279676E-04                    2_GWF-(4,75,20) -1.49219603E-02                     2_GWF-(4,75,1)
        457         13         18 -2.69518412E-04                    2_GWF-(4,75,20) -9.31613976E-03                    1_GWF-(1,12,24)
        458         13         19 -4.86329681E-04                    2_GWF-(4,75,20) -1.26073796E-02                     2_GWF-(4,75,1)
        459         13         20 -1.69511509E-04                    2_GWF-(4,75,20) -4.62611741E-03                    1_GWF-(2,10,23)
        460         14          1 -6.05995697E-02                    2_GWF-(2,33,37)      -9.4500817                    1_GWF-(2,11,22)
        461         14          2 -1.78638433E-02                    2_GWF-(3,29,43)       2.0892982                    2_GWF-(1,28,40)
        462         14          3 -1.46427768E-02                    2_GWF-(1,27,44)      0.77355719                    2_GWF-(1,30,53)
        463         14          4 -1.14037308E-02                    2_GWF-(4,54,59)      0.87241306                    1_GWF-(3,12,22)
        464         14          5 -1.31517701E-02                    2_GWF-(4,55,59)      0.35701406                    1_GWF-(3,12,22)
        465         14          6 -1.29170453E-02                    2_GWF-(4,55,59)      0.22883494                    1_GWF-(1,12,24)
        466         14          7 -1.43649871E-02                    2_GWF-(4,55,59)      0.22619864                    1_GWF-(1,12,24)
        467         14          8      0.11574896                    2_GWF-(4,55,59)      0.59816319                    2_GWF-(1,28,69)
        468         14          9     -0.14942760                    2_GWF-(4,55,59)      0.14834217                    1_GWF-(2,10,23)
        469         14         10 -7.69915714E-03                    2_GWF-(4,55,59)  8.61281750E-02                    1_GWF-(2,11,22)
        470         14         11 -6.50315295E-03                    2_GWF-(4,55,59)  5.06865408E-02                    1_GWF-(2,11,22)
        471         14         12 -4.66993973E-03                    2_GWF-(4,55,59)  1.77716152E-02                    1_GWF-(3,11,22)
        472         14         13 -2.74784258E-03                    2_GWF-(4,55,59) -1.79075366E-02                     2_GWF-(4,75,1)
        473         14         14 -1.71574754E-03                    2_GWF-(4,55,59) -1.46164507E-02                    1_GWF-(2,10,23)
[...]




  WATER MOVER BUDGET FOR ENTIRE MODEL AT END OF TIME STEP    1, STRESS PERIOD  11
  ------------------------------------------------------------------------------

     CUMULATIVE WATER MOVER      L**3       RATES FOR THIS TIME STEP      L**3/T
     ------------------                 ------------------------

           IN:                                      IN:
           ---                                      ---
    PLSNT_LGR_INSET/ =      750579.3572      PLSNT_LGR_INSET/ =        2407.2798
    PLSNT_LGR_PARENT =           0.0000      PLSNT_LGR_PARENT =           0.0000

            TOTAL IN =      750579.3572              TOTAL IN =        2407.2798

          OUT:                                     OUT:
          ----                                     ----
    PLSNT_LGR_INSET/ =           0.0000      PLSNT_LGR_INSET/ =           0.0000
    PLSNT_LGR_PARENT =      750579.3572      PLSNT_LGR_PARENT =        2407.2798

           TOTAL OUT =      750579.3572             TOTAL OUT =        2407.2798

            IN - OUT =           0.0000              IN - OUT =           0.0000

 PERCENT DISCREPANCY =           0.00     PERCENT DISCREPANCY =           0.00

 
    Solving:  Stress period:    12    Time step:     1
 
1
                            STRESS PERIOD NO. 12, LENGTH =   30.00000    
                            -----------------------------------------------
                            NUMBER OF TIME STEPS = 1
                            MULTIPLIER FOR DELT =     1.500

 REUSING MVRS FROM LAST STRESS PERIOD
                            INITIAL TIME STEP SIZE =   30.00000    

 SLN_1 OUTER ITERATION SUMMARY
 ----------------------------------------------------------------------------------------------------------
                                OUTER      INNER                    STEP   MAXIMUM CHANGE MODEL-(CELLID) OR
 OUTER ITERATION STEP       ITERATION  ITERATION  MAXIMUM CHANGE SUCCESS             MODEL-PACKAGE-(NUMBER)
 ----------------------------------------------------------------------------------------------------------
 Model                              1          8     -0.73509853                            1_GWF-(4,22,19)
 Model                              2          7  3.79358611E-02                            2_GWF-(2,55,64)
 Model                              3          4 -1.15855105E-02                            2_GWF-(2,46,85)
 Model                              4          3  4.48884441E-03       *                    2_GWF-(2,46,85)
 Package                            4                 -1.4584074                     2_GWF-SFR_0-(6)-inflow
 Model                              5          2 -1.20319289E-03       *                    2_GWF-(2,46,85)
 Package                            5                -0.18120136                     2_GWF-SFR_0-(6)-inflow
 Model                              6          2  1.74734003E-04       *                    2_GWF-(2,46,85)
 Package                            6            -2.34833169E-02                     2_GWF-SFR_0-(6)-inflow
 Model                              7          1 -2.50303822E-05       *                    2_GWF-(1,28,74)
 Package                            7             1.19638210E-02                     2_GWF-SFR_0-(4)-inflow
 Model                              8          1 -1.22804103E-05       *                    2_GWF-(1,28,74)
 Package                            8             4.58305519E-03       *             2_GWF-SFR_0-(4)-inflow
 ----------------------------------------------------------------------------------------------------------


 8 CALLS TO NUMERICAL SOLUTION IN TIME STEP 1 STRESS PERIOD 12
 28 TOTAL ITERATIONS

 SLN_1 INNER ITERATION SUMMARY
 --------------------------------------------------------------------------------------------------------------------------------------
      TOTAL      OUTER      INNER                                                            MAXIMUM                                   
  ITERATION  ITERATION  ITERATION  MAXIMUM CHANGE      MAXIMUM CHANGE MODEL-(CELLID)        RESIDUAL    MAXIMUM RESIDUAL MODEL-(CELLID)
 --------------------------------------------------------------------------------------------------------------------------------------
          1          1          1     -0.73781967                    1_GWF-(4,22,19)       20.960120                     1_GWF-(2,4,24)
          2          1          2  1.58528516E-02                    2_GWF-(4,74,49)      -14.203328                     1_GWF-(3,2,24)
          3          1          3 -1.95974207E-02                     2_GWF-(5,56,7)     -0.77573109                     1_GWF-(2,5,19)
          4          1          4 -5.51022021E-03                    2_GWF-(3,19,35)      0.71270403                    1_GWF-(2,11,22)
          5          1          5 -4.64764015E-03                    2_GWF-(4,19,35)     -0.15255742                     1_GWF-(2,5,19)
          6          1          6 -3.19053846E-03                    2_GWF-(4,19,35)      0.18642387                    1_GWF-(2,11,22)
          7          1          7 -5.13412784E-04                    2_GWF-(2,54,58)  3.97634489E-02                    1_GWF-(2,11,23)
          8          1          8 -5.73053417E-04                    2_GWF-(4,54,58)  3.92022259E-02                    1_GWF-(2,11,22)
          9          2          1  3.46505977E-02                    2_GWF-(1,55,64)      -1.8865939                    1_GWF-(5,23,15)
         10          2          2  2.50867306E-03                    2_GWF-(1,53,85)     -0.40788226                    1_GWF-(5,23,15)
         11          2          3  9.29626103E-04                    2_GWF-(5,73,54)     -0.11293693                    1_GWF-(5,22,15)
         12          2          4  3.37376224E-04                    2_GWF-(5,69,63) -5.26559380E-02                    1_GWF-(5,22,17)
         13          2          5  2.20246760E-04                    2_GWF-(1,62,65) -1.98556207E-02                    1_GWF-(5,22,17)
         14          2          6  1.06793405E-04                    2_GWF-(4,62,65)  7.05487328E-03                    1_GWF-(2,11,22)
         15          2          7 -5.35070878E-05                    2_GWF-(5,30,59)  7.98202776E-03                    1_GWF-(2,11,22)
         16          3          1 -1.27833822E-02                    2_GWF-(1,46,85)      0.28812458                    1_GWF-(3,15,22)
         17          3          2  1.08762297E-03                    2_GWF-(1,46,85)  5.55307165E-02                    1_GWF-(3,15,22)
         18          3          3  1.07086684E-04                    2_GWF-(1,46,85)  1.50295910E-02                    1_GWF-(2,11,22)
         19          3          4 -4.42014700E-05                    2_GWF-(5,37,45) -4.16798525E-03                    1_GWF-(5,22,17)
         20          4          1  4.78526668E-03                    2_GWF-(1,46,85)     -0.10896039                    1_GWF-(3,15,22)
         21          4          2 -2.55496386E-04                    2_GWF-(1,46,85) -2.00703903E-02                    1_GWF-(3,15,22)
         22          4          3 -4.09258756E-05                    2_GWF-(1,46,85)  4.38654605E-03                    1_GWF-(2,11,22)
         23          5          1 -1.24591336E-03                    2_GWF-(1,46,85)  2.76848163E-02                    1_GWF-(3,15,22)
         24          5          2 -6.00480945E-05                    2_GWF-(1,44,85)  5.38708705E-03                    1_GWF-(3,15,22)
         25          6          1  1.89513003E-04                    2_GWF-(1,46,85) -4.74795059E-03                    1_GWF-(3,15,22)
         26          6          2 -1.47789991E-05                    2_GWF-(1,46,85) -1.31673392E-03                    1_GWF-(3,15,22)
         27          7          1 -2.50303822E-05                    2_GWF-(1,28,74)  1.35391626E-03                    1_GWF-(2,11,22)
         28          8          1 -1.22804103E-05                    2_GWF-(1,28,74) -8.20957962E-04                    2_GWF-(1,28,74)
 --------------------------------------------------------------------------------------------------------------------------------------



 WATER MOVER PACKAGE (MVR) FLOW RATES   PERIOD     12   STEP        1
 --------------------------------------------------------------------------------------------------------------------------
                                               PROVIDER  AVAILABLE   PROVIDED                                     RECEIVER 
   NUMBER           PROVIDER LOCATION             ID        RATE       RATE            RECEIVER LOCATION             ID    
 --------------------------------------------------------------------------------------------------------------------------
     1            PLSNT_LGR_INSET/SFR_0           29      0.00       0.00           PLSNT_LGR_PARENT/SFR_0           13    
     2            PLSNT_LGR_INSET/SFR_0           41      2.394E+03  2.394E+03      PLSNT_LGR_PARENT/SFR_0           1     
 --------------------------------------------------------------------------------------------------------------------------




  WATER MOVER BUDGET FOR ENTIRE MODEL AT END OF TIME STEP    1, STRESS PERIOD  12
  ------------------------------------------------------------------------------

     CUMULATIVE WATER MOVER      L**3       RATES FOR THIS TIME STEP      L**3/T
     ------------------                 ------------------------

           IN:                                      IN:
           ---                                      ---
    PLSNT_LGR_INSET/ =      822398.2671      PLSNT_LGR_INSET/ =        2393.9637
    PLSNT_LGR_PARENT =           0.0000      PLSNT_LGR_PARENT =           0.0000

            TOTAL IN =      822398.2671              TOTAL IN =        2393.9637

          OUT:                                     OUT:
          ----                                     ----
    PLSNT_LGR_INSET/ =           0.0000      PLSNT_LGR_INSET/ =           0.0000
    PLSNT_LGR_PARENT =      822398.2671      PLSNT_LGR_PARENT =        2393.9637

           TOTAL OUT =      822398.2671             TOTAL OUT =        2393.9637

            IN - OUT =           0.0000              IN - OUT =           0.0000

 PERCENT DISCREPANCY =           0.00     PERCENT DISCREPANCY =           0.00

 
    Solving:  Stress period:    13    Time step:     1
 
1
                            STRESS PERIOD NO. 13, LENGTH =   31.00000    
                            -----------------------------------------------
                            NUMBER OF TIME STEPS = 1
                            MULTIPLIER FOR DELT =     1.500

 REUSING MVRS FROM LAST STRESS PERIOD
                            INITIAL TIME STEP SIZE =   31.00000    

 SLN_1 OUTER ITERATION SUMMARY
 ----------------------------------------------------------------------------------------------------------
                                OUTER      INNER                    STEP   MAXIMUM CHANGE MODEL-(CELLID) OR
 OUTER ITERATION STEP       ITERATION  ITERATION  MAXIMUM CHANGE SUCCESS             MODEL-PACKAGE-(NUMBER)
 ----------------------------------------------------------------------------------------------------------
 Model                              1          7     -0.20240279                            1_GWF-(4,22,19)
 Model                              2          7 -4.00522322E-02                              1_GWF-(3,7,2)
 Model                              3          4 -1.28095343E-02                            2_GWF-(2,46,85)
 Model                              4          3  5.63270730E-03       *                    2_GWF-(2,46,85)
 Package                            4                 -1.4747229                     2_GWF-SFR_0-(6)-inflow
 Model                              5          3 -1.77271333E-03       *                    2_GWF-(2,46,85)
 Package                            5                -0.18177867                     2_GWF-SFR_0-(6)-inflow
 Model                              6          2  3.14924122E-04       *                    2_GWF-(2,46,85)
 Package                            6            -2.45065608E-02                     2_GWF-SFR_0-(6)-inflow
 Model                              7          1 -2.67079614E-05       *                    2_GWF-(2,46,85)
 Package                            7             5.83255590E-03       *             2_GWF-SFR_0-(4)-inflow
 ----------------------------------------------------------------------------------------------------------


 7 CALLS TO NUMERICAL SOLUTION IN TIME STEP 1 STRESS PERIOD 13
 27 TOTAL ITERATIONS

 SLN_1 INNER ITERATION SUMMARY
 --------------------------------------------------------------------------------------------------------------------------------------
      TOTAL      OUTER      INNER                                                            MAXIMUM                                   
  ITERATION  ITERATION  ITERATION  MAXIMUM CHANGE      MAXIMUM CHANGE MODEL-(CELLID)        RESIDUAL    MAXIMUM RESIDUAL MODEL-(CELLID)
 --------------------------------------------------------------------------------------------------------------------------------------
          1          1          1     -0.20261564                    1_GWF-(4,22,19)      -18.865690                     1_GWF-(3,2,24)
          2          1          2      0.15785636                    2_GWF-(4,74,49)      -118.30766                     1_GWF-(3,2,24)
          3          1          3     -0.15844359                    2_GWF-(4,74,49)     -0.75790937                     1_GWF-(2,5,19)
          4          1          4  5.29748390E-03                    2_GWF-(5,55,10)     -0.89581298                     1_GWF-(2,5,19)
          5          1          5 -1.66435227E-02                    2_GWF-(5,55,11)      0.20398826                    1_GWF-(2,11,22)
          6          1          6  2.28634182E-04                    2_GWF-(1,33,85)      0.17542888                    1_GWF-(2,10,23)
          7          1          7 -2.78274034E-03                    2_GWF-(1,54,58) -7.01272810E-02                     1_GWF-(3,2,24)
          8          2          1 -3.87754328E-02                      1_GWF-(1,7,2)       2.8907035                      1_GWF-(3,7,2)
          9          2          2 -2.65153995E-03                    2_GWF-(1,46,85)      -1.0713802                      1_GWF-(4,7,2)
         10          2          3  8.52126294E-04                    2_GWF-(5,71,63)     -0.23238840                      1_GWF-(4,7,2)
         11          2          4  3.43494088E-04                    2_GWF-(4,73,71) -5.90782694E-02                    1_GWF-(5,22,17)
         12          2          5  2.63596974E-04                    2_GWF-(1,62,65)  2.71718081E-02                    1_GWF-(2,11,22)
         13          2          6  1.35799580E-04                    2_GWF-(4,62,65)  9.21691419E-03                      1_GWF-(4,7,2)
         14          2          7  6.48064085E-05                    2_GWF-(4,62,65)  6.38569874E-03                    1_GWF-(2,11,22)
         15          3          1 -1.43196908E-02                    2_GWF-(1,46,85)      0.31312591                    1_GWF-(3,15,22)
         16          3          2  1.31837785E-03                    2_GWF-(1,46,85)  7.22315135E-02                    1_GWF-(3,15,22)
         17          3          3  1.98024798E-04                    2_GWF-(1,46,85) -1.57362968E-02                    1_GWF-(5,22,15)
         18          3          4  3.95777430E-05                    2_GWF-(4,73,71) -5.10173941E-03                    1_GWF-(5,22,18)
         19          4          1  5.99234362E-03                    2_GWF-(1,46,85)     -0.12944401                    1_GWF-(3,15,22)
         20          4          2 -3.07081688E-04                    2_GWF-(1,46,85) -2.47755676E-02                    1_GWF-(3,15,22)
         21          4          3 -5.25546312E-05                    2_GWF-(1,46,85) -4.95663734E-03                    1_GWF-(3,15,22)
         22          5          1 -1.83412208E-03                    2_GWF-(1,46,85)  3.84837625E-02                    1_GWF-(3,15,22)
         23          5          2 -1.02082032E-04                    2_GWF-(1,44,85)  6.60875352E-03                    1_GWF-(3,15,22)
         24          5          3  1.55929585E-05                    2_GWF-(1,44,85)  1.74338661E-03                    1_GWF-(2,11,22)
         25          6          1  3.29882615E-04                    2_GWF-(1,46,85)  7.96402598E-03                    1_GWF-(2,15,22)
         26          6          2 -1.59778597E-05                    2_GWF-(3,46,85) -2.45003172E-03                    1_GWF-(3,15,22)
         27          7          1 -2.67079614E-05                    2_GWF-(1,46,85)  8.69313842E-04                    1_GWF-(2,11,22)
 --------------------------------------------------------------------------------------------------------------------------------------



 WATER MOVER PACKAGE (MVR) FLOW RATES   PERIOD     13   STEP        1
 --------------------------------------------------------------------------------------------------------------------------
                                               PROVIDER  AVAILABLE   PROVIDED                                     RECEIVER 
   NUMBER           PROVIDER LOCATION             ID        RATE       RATE            RECEIVER LOCATION             ID    
 --------------------------------------------------------------------------------------------------------------------------
     1            PLSNT_LGR_INSET/SFR_0           29      0.00       0.00           PLSNT_LGR_PARENT/SFR_0           13    
     2            PLSNT_LGR_INSET/SFR_0           41      2.380E+03  2.380E+03      PLSNT_LGR_PARENT/SFR_0           1     
 --------------------------------------------------------------------------------------------------------------------------




  WATER MOVER BUDGET FOR ENTIRE MODEL AT END OF TIME STEP    1, STRESS PERIOD  13
  ------------------------------------------------------------------------------

     CUMULATIVE WATER MOVER      L**3       RATES FOR THIS TIME STEP      L**3/T
     ------------------                 ------------------------

           IN:                                      IN:
           ---                                      ---
    PLSNT_LGR_INSET/ =      896177.5661      PLSNT_LGR_INSET/ =        2379.9774
    PLSNT_LGR_PARENT =           0.0000      PLSNT_LGR_PARENT =           0.0000

            TOTAL IN =      896177.5661              TOTAL IN =        2379.9774

          OUT:                                     OUT:
          ----                                     ----
    PLSNT_LGR_INSET/ =           0.0000      PLSNT_LGR_INSET/ =           0.0000
    PLSNT_LGR_PARENT =      896177.5661      PLSNT_LGR_PARENT =        2379.9774

           TOTAL OUT =      896177.5661             TOTAL OUT =        2379.9774

            IN - OUT =           0.0000              IN - OUT =           0.0000

 PERCENT DISCREPANCY =           0.00     PERCENT DISCREPANCY =           0.00



 Solution SLN_1 summary
 ----------------------------------------------------------------------
 Total formulate time:  1.062500000000000 seconds
 Total solution time:   1.609375000000000 seconds


 MEMORY MANAGER TOTAL STORAGE BY DATA TYPE, IN MEGABYTES
 -------------------------------
                    ALLOCATED   
 DATA TYPE           MEMORY     
 -------------------------------
 Character        3.15500000E-02
 Logical          7.60000000E-05
 Integer          9.0303840     
 Real             18.177176     
 -------------------------------
 Total            27.239186     
 -------------------------------


 
 Run end date and time (yyyy/mm/dd hh:mm:ss): 2025/01/31 10:09:11
 Elapsed run time:  5.376 Seconds
 Normal termination of simulation.
