                                   MODFLOW 6
                U.S. GEOLOGICAL SURVEY MODULAR HYDROLOGIC MODEL
                          GROUNDWATER FLOW MODEL (GWF)
                            VERSION 6.6.1 02/10/2025

   MODFLOW 6 compiled Feb 14 2025 13:40:10 with Intel(R) Fortran Intel(R) 64
   Compiler Classic for applications running on Intel(R) 64, Version 2021.7.0
                             Build 20220726_000000

This software has been approved for release by the U.S. Geological 
Survey (USGS). Although the software has been subjected to rigorous 
review, the USGS reserves the right to update the software as needed 
pursuant to further analysis and review. No warranty, expressed or 
implied, is made by the USGS or the U.S. Government as to the 
functionality of the software and related material nor shall the 
fact of release constitute any such warranty. Furthermore, the 
software is released on condition that neither the USGS nor the U.S. 
Government shall be held liable for any damages resulting from its 
authorized or unauthorized use. Also refer to the USGS Water 
Resources Software User Rights Notice for complete use, copyright, 
and distribution information.


As a work of the United States Government, this USGS product is 
in the public domain within the United States. You can copy, 
modify, distribute, and perform the work, even for commercial 
purposes, all without asking permission. Additionally, USGS 
waives copyright and related rights in the work worldwide 
through CC0 1.0 Universal Public Domain Dedication 
(https://creativecommons.org/publicdomain/zero/1.0/).

The following GNU Lesser General Public License (LGPL) libraries
are used in this USGS product:

    SPARSKIT version 2.0
      ilut, luson, and qsplit 
      (https://www-users.cse.umn.edu/~saad/software/SPARSKIT/)

    RCM - Reverse Cuthill McKee Ordering
      (https://people.math.sc.edu/Burkardt/f_src/rcm/rcm.html)

    BLAS - Basic Linear Algebra Subprograms Level 1
      (https://people.math.sc.edu/Burkardt/f_src/blas1_d/blas1_d.html)

    SPARSEKIT - Sparse Matrix Utility Package
      amux, dperm, dvperm, rperm, and cperm
      (https://people.sc.fsu.edu/~jburkardt/f77_src/sparsekit/sparsekit.html)

The following BSD-3 License libraries are used in this USGS product:

    Modern Fortran DAG Library
      Copyright (c) 2018, Jacob Williams
      All rights reserved.
      (https://github.com/jacobwilliams/daglib)

MODFLOW 6 compiler options: /O2 /heap-arrays:0 /fpe:0 /traceback /nologo /fpp
/c /module:win64\mod_mf6\ /object:win64\obj_mf6\

System command used to initiate simulation:
C:\Users\gross.DESKTOP-AIRQM2M\anaconda3\Scripts\mf6.exe

MODFLOW was compiled using uniform precision.

Real Variables
  KIND: 8
  TINY (smallest non-zero value):    2.225074-308
  HUGE (largest value):    1.797693+308
  PRECISION: 15
  SIZE IN BITS: 64

Integer Variables
  KIND: 4
  HUGE (largest value): 2147483647
  SIZE IN BITS: 32

Long Integer Variables
  KIND: 8
  HUGE (largest value): 9223372036854775807
  SIZE IN BITS: 64

Logical Variables
  KIND: 4
  SIZE IN BITS: 32
 
 NAMEFILE OPTIONS:
    NEWTON-RAPHSON method enabled for the model.
 END NAMEFILE OPTIONS:

 DIS -- STRUCTURED GRID DISCRETIZATION PACKAGE, VERSION 2 : 3/27/2014 - INPUT READ FROM MEMPATH: __INPUT__/08_P02/DIS                              


 NPF -- NODE PROPERTY FLOW PACKAGE, VERSION 1, 3/30/2015 INPUT READ FROM MEMPATH: __INPUT__/08_P02/NPF                              


 IC -- Initial Conditions Package, Version 8, 3/28/2015 input read from mempath: __INPUT__/08_P02/IC                               


 Setting Discretization Options
    Model length unit [0=UND, 1=FEET, 2=METERS, 3=CENTIMETERS] set as 1
 End Setting Discretization Options

 Setting Discretization Dimensions
    NLAY = 14
    NROW = 40
    NCOL = 40
 End Setting Discretization Dimensions

 Setting Discretization Griddata
    DELR set from input file
    DELC set from input file
    TOP set from input file
    BOTM set from input file
 End Setting Discretization Griddata

 Setting NPF Options
 End Setting NPF Options

 Setting NPF Griddata
    ICELLTYPE set from input file
    K set from input file
    K33 set from input file
    K22 not provided.  Setting K22 = K.
 End Setting NPF Griddata


 RCH   -- RCH PACKAGE, VERSION 8, 2/22/2014 INPUT READ FROM MEMPATH: __INPUT__/08_P02/RCH_0                            

 PROCESSING RCH BASE OPTIONS
 END OF RCH BASE OPTIONS

 PROCESSING RCH OPTIONS
 END OF RCH OPTIONS

 PROCESSING RCH BASE DIMENSIONS
    MAXBOUND =       4
 END OF RCH BASE DIMENSIONS

 CHD   -- CHD PACKAGE, VERSION 8, 2/22/2014 INPUT READ FROM MEMPATH: __INPUT__/08_P02/CHD_0                            

 PROCESSING CHD BASE OPTIONS
 END OF CHD BASE OPTIONS

 PROCESSING CHD BASE DIMENSIONS
    MAXBOUND =     395
 END OF CHD BASE DIMENSIONS
    STRT set from input file

 STO -- STORAGE PACKAGE, VERSION 1, 5/19/2014 INPUT READ FROM MEMPATH: __INPUT__/08_P02/STO                              


 PROCESSING STORAGE OPTIONS
 END OF STORAGE OPTIONS
    BINARY GRID INFORMATION WILL BE WRITTEN TO:
      UNIT NUMBER: 1014
      FILE NAME: 08_p02.dis.grb

 OPENED 08_p02.dis.grb
 FILE TYPE:DATA(BINARY)   UNIT 1014   STATUS:REPLACE             
 FORMAT:UNFORMATTED            ACCESS:STREAM              
 ACTION:READWRITE           

      THE LAST TIME STEP WILL BE PRINTED
      THE LAST TIME STEP WILL BE PRINTED
 # File generated by Flopy version 3.8.2 on 06/20/2025 at 16:35:46.

 PROCESSING OC OPTIONS

    HEAD INFORMATION WILL BE WRITTEN TO:
      UNIT NUMBER: 1015
      FILE NAME: 08_p02.hds

 OPENED 08_p02.hds
 FILE TYPE:DATA(BINARY)   UNIT 1015   STATUS:REPLACE             
 FORMAT:UNFORMATTED            ACCESS:STREAM              
 ACTION:READWRITE           

 END OF OC OPTIONS

start timestep kper="1" kstp="1" mode="normal"


 BEGIN READING OUTPUT CONTROL FOR STRESS PERIOD 1
      THE LAST TIME STEP WILL BE SAVED

 END READING OUTPUT CONTROL FOR STRESS PERIOD 1

end timestep


start timestep kper="1" kstp="2" mode="normal"


end timestep


start timestep kper="1" kstp="3" mode="normal"


end timestep


start timestep kper="1" kstp="4" mode="normal"


end timestep


start timestep kper="1" kstp="5" mode="normal"


end timestep


start timestep kper="1" kstp="6" mode="normal"


end timestep


start timestep kper="1" kstp="7" mode="normal"


end timestep


start timestep kper="1" kstp="8" mode="normal"


end timestep


start timestep kper="1" kstp="9" mode="normal"


end timestep


start timestep kper="1" kstp="10" mode="normal"


 HEAD WILL BE SAVED ON UNIT 1015 AT END OF TIME STEP   10, STRESS PERIOD    1


  VOLUME BUDGET FOR ENTIRE MODEL AT END OF TIME STEP   10, STRESS PERIOD   1
  ---------------------------------------------------------------------------------------------------

     CUMULATIVE VOLUME      L**3       RATES FOR THIS TIME STEP      L**3/T          PACKAGE NAME    
     ------------------                 ------------------------                     ----------------

           IN:                                      IN:
           ---                                      ---
              STO-SS =       1.1435E-03                STO-SS =       3.4673E-37     STORAGE                          
              STO-SY =       9.3758E-04                STO-SY =       2.8856E-20     STORAGE                          
                 RCH =      593750.0000                   RCH =        3125.0000     RCH_0                            
                 CHD =       1.8668E-08                   CHD =       1.1380E-10     CHD_0                            

            TOTAL IN =      593750.0021              TOTAL IN =        3125.0000

          OUT:                                     OUT:
          ----                                     ----
              STO-SS =       15824.4592                STO-SS =          88.2576     STORAGE                          
              STO-SY =      577925.5271                STO-SY =        3036.7419     STORAGE                          
                 RCH =           0.0000                   RCH =           0.0000     RCH_0                            
                 CHD =       5.6252E-02                   CHD =       4.9889E-04     CHD_0                            

           TOTAL OUT =      593750.0425             TOTAL OUT =        3125.0000

            IN - OUT =      -4.0464E-02              IN - OUT =      -3.3949E-05

 PERCENT DISCREPANCY =          -0.00     PERCENT DISCREPANCY =          -0.00




         TIME SUMMARY AT END OF TIME STEP   10 IN STRESS PERIOD    1
                    SECONDS     MINUTES      HOURS       DAYS        YEARS
                    -----------------------------------------------------------
   TIME STEP LENGTH 1.64160E+06  27360.      456.00      19.000     5.20192E-02
 STRESS PERIOD TIME 1.64160E+07 2.73600E+05  4560.0      190.00     0.52019    
         TOTAL TIME 1.64160E+07 2.73600E+05  4560.0      190.00     0.52019    


end timestep


start timestep kper="2" kstp="1" mode="normal"


 END OF FILE DETECTED IN OUTPUT CONTROL.
 CURRENT OUTPUT CONTROL SETTINGS WILL BE 
 REPEATED UNTIL THE END OF THE SIMULATION.

 OUTPUT CONTROL FOR STRESS PERIOD 2 IS REPEATED USING SETTINGS FROM A PREVIOUS STRESS PERIOD.

end timestep


start timestep kper="2" kstp="2" mode="normal"


 HEAD WILL BE SAVED ON UNIT 1015 AT END OF TIME STEP    2, STRESS PERIOD    2


  VOLUME BUDGET FOR ENTIRE MODEL AT END OF TIME STEP    2, STRESS PERIOD   2
  ---------------------------------------------------------------------------------------------------

     CUMULATIVE VOLUME      L**3       RATES FOR THIS TIME STEP      L**3/T          PACKAGE NAME    
     ------------------                 ------------------------                     ----------------

           IN:                                      IN:
           ---                                      ---
              STO-SS =       1.1435E-03                STO-SS =       1.0821E-40     STORAGE                          
              STO-SY =       9.3758E-04                STO-SY =       3.0458E-23     STORAGE                          
                 RCH =     2212500.0000                   RCH =        3125.0000     RCH_0                            
                 CHD =       2.0825E-08                   CHD =       5.5511E-12     CHD_0                            

            TOTAL IN =     2212500.0021              TOTAL IN =        3125.0000

          OUT:                                     OUT:
          ----                                     ----
              STO-SS =       60376.3254                STO-SS =          86.9269     STORAGE                          
              STO-SY =     2151818.6769                STO-SY =        3037.0658     STORAGE                          
                 RCH =           0.0000                   RCH =           0.0000     RCH_0                            
                 CHD =         305.1473                   CHD =           1.0071     CHD_0                            

           TOTAL OUT =     2212500.1496             TOTAL OUT =        3124.9998

            IN - OUT =          -0.1475              IN - OUT =       2.0350E-04

 PERCENT DISCREPANCY =          -0.00     PERCENT DISCREPANCY =           0.00




         TIME SUMMARY AT END OF TIME STEP    2 IN STRESS PERIOD    2
                    SECONDS     MINUTES      HOURS       DAYS        YEARS
                    -----------------------------------------------------------
   TIME STEP LENGTH 2.23776E+07 3.72960E+05  6216.0      259.00     0.70910    
 STRESS PERIOD TIME 4.47552E+07 7.45920E+05  12432.      518.00      1.4182    
         TOTAL TIME 6.11712E+07 1.01952E+06  16992.      708.00      1.9384    


end timestep


start timestep kper="3" kstp="1" mode="normal"


 OUTPUT CONTROL FOR STRESS PERIOD 3 IS REPEATED USING SETTINGS FROM A PREVIOUS STRESS PERIOD.

end timestep


start timestep kper="3" kstp="2" mode="normal"


end timestep


start timestep kper="3" kstp="3" mode="normal"


end timestep


start timestep kper="3" kstp="4" mode="normal"


end timestep


start timestep kper="3" kstp="5" mode="normal"


end timestep


start timestep kper="3" kstp="6" mode="normal"


end timestep


start timestep kper="3" kstp="7" mode="normal"


end timestep


start timestep kper="3" kstp="8" mode="normal"


end timestep


start timestep kper="3" kstp="9" mode="normal"


end timestep


start timestep kper="3" kstp="10" mode="normal"


end timestep


start timestep kper="3" kstp="11" mode="normal"


end timestep


start timestep kper="3" kstp="12" mode="normal"


end timestep


start timestep kper="3" kstp="13" mode="normal"


end timestep


start timestep kper="3" kstp="14" mode="normal"


end timestep


start timestep kper="3" kstp="15" mode="normal"


end timestep


start timestep kper="3" kstp="16" mode="normal"


end timestep


start timestep kper="3" kstp="17" mode="normal"


 HEAD WILL BE SAVED ON UNIT 1015 AT END OF TIME STEP   17, STRESS PERIOD    3


  VOLUME BUDGET FOR ENTIRE MODEL AT END OF TIME STEP   17, STRESS PERIOD   3
  ---------------------------------------------------------------------------------------------------

     CUMULATIVE VOLUME      L**3       RATES FOR THIS TIME STEP      L**3/T          PACKAGE NAME    
     ------------------                 ------------------------                     ----------------

           IN:                                      IN:
           ---                                      ---
              STO-SS =       1.1435E-03                STO-SS =           0.0000     STORAGE                          
              STO-SY =       9.3758E-04                STO-SY =           0.0000     STORAGE                          
                 RCH =     8215625.0000                   RCH =        3125.0000     RCH_0                            
                 CHD =       2.0825E-08                   CHD =           0.0000     CHD_0                            

            TOTAL IN =     8215625.0021              TOTAL IN =        3125.0000

          OUT:                                     OUT:
          ----                                     ----
              STO-SS =      228095.9047                STO-SS =          85.4918     STORAGE                          
              STO-SY =     7916043.5543                STO-SY =        2924.6743     STORAGE                          
                 RCH =           0.0000                   RCH =           0.0000     RCH_0                            
                 CHD =       71485.9994                   CHD =         114.8342     CHD_0                            

           TOTAL OUT =     8215625.4584             TOTAL OUT =        3125.0003

            IN - OUT =          -0.4563              IN - OUT =      -3.3118E-04

 PERCENT DISCREPANCY =          -0.00     PERCENT DISCREPANCY =          -0.00




         TIME SUMMARY AT END OF TIME STEP   17 IN STRESS PERIOD    3
                    SECONDS     MINUTES      HOURS       DAYS        YEARS
                    -----------------------------------------------------------
   TIME STEP LENGTH 9.76320E+06 1.62720E+05  2712.0      113.00     0.30938    
 STRESS PERIOD TIME 1.65974E+08 2.76624E+06  46104.      1921.0      5.2594    
         TOTAL TIME 2.27146E+08 3.78576E+06  63096.      2629.0      7.1978    


end timestep


start timestep kper="4" kstp="1" mode="normal"


 OUTPUT CONTROL FOR STRESS PERIOD 4 IS REPEATED USING SETTINGS FROM A PREVIOUS STRESS PERIOD.


 PROCESSING STORAGE PERIOD DATA
 END PROCESSING STORAGE PERIOD DATA


 STRESS PERIOD 4 IS STEADY-STATE


 HEAD WILL BE SAVED ON UNIT 1015 AT END OF TIME STEP    1, STRESS PERIOD    4


  VOLUME BUDGET FOR ENTIRE MODEL AT END OF TIME STEP    1, STRESS PERIOD   4
  ---------------------------------------------------------------------------------------------------

     CUMULATIVE VOLUME      L**3       RATES FOR THIS TIME STEP      L**3/T          PACKAGE NAME    
     ------------------                 ------------------------                     ----------------

           IN:                                      IN:
           ---                                      ---
              STO-SS =       1.1435E-03                STO-SS =           0.0000     STORAGE                          
              STO-SY =       9.3758E-04                STO-SY =           0.0000     STORAGE                          
                 RCH =     8218750.0000                   RCH =        3125.0000     RCH_0                            
                 CHD =       2.0825E-08                   CHD =           0.0000     CHD_0                            

            TOTAL IN =     8218750.0021              TOTAL IN =        3125.0000

          OUT:                                     OUT:
          ----                                     ----
              STO-SS =      228095.9047                STO-SS =           0.0000     STORAGE                          
              STO-SY =     7916043.5543                STO-SY =           0.0000     STORAGE                          
                 RCH =           0.0000                   RCH =           0.0000     RCH_0                            
                 CHD =       74611.0098                   CHD =        3125.0104     CHD_0                            

           TOTAL OUT =     8218750.4688             TOTAL OUT =        3125.0104

            IN - OUT =          -0.4667              IN - OUT =      -1.0423E-02

 PERCENT DISCREPANCY =          -0.00     PERCENT DISCREPANCY =          -0.00




         TIME SUMMARY AT END OF TIME STEP    1 IN STRESS PERIOD    4
                    SECONDS     MINUTES      HOURS       DAYS        YEARS
                    -----------------------------------------------------------
   TIME STEP LENGTH  86400.      1440.0      24.000      1.0000     2.73785E-03
 STRESS PERIOD TIME  86400.      1440.0      24.000      1.0000     2.73785E-03
         TOTAL TIME 2.27232E+08 3.78720E+06  63120.      2630.0      7.2005    


end timestep

