                                   MODFLOW 6
                U.S. GEOLOGICAL SURVEY MODULAR HYDROLOGIC MODEL
                            VERSION 6.6.1 02/10/2025

   MODFLOW 6 compiled Feb 14 2025 13:40:10 with Intel(R) Fortran Intel(R) 64
   Compiler Classic for applications running on Intel(R) 64, Version 2021.7.0
                             Build 20220726_000000

This software has been approved for release by the U.S. Geological 
Survey (USGS). Although the software has been subjected to rigorous 
review, the USGS reserves the right to update the software as needed 
pursuant to further analysis and review. No warranty, expressed or 
implied, is made by the USGS or the U.S. Government as to the 
functionality of the software and related material nor shall the 
fact of release constitute any such warranty. Furthermore, the 
software is released on condition that neither the USGS nor the U.S. 
Government shall be held liable for any damages resulting from its 
authorized or unauthorized use. Also refer to the USGS Water 
Resources Software User Rights Notice for complete use, copyright, 
and distribution information.


As a work of the United States Government, this USGS product is 
in the public domain within the United States. You can copy, 
modify, distribute, and perform the work, even for commercial 
purposes, all without asking permission. Additionally, USGS 
waives copyright and related rights in the work worldwide 
through CC0 1.0 Universal Public Domain Dedication 
(https://creativecommons.org/publicdomain/zero/1.0/).

The following GNU Lesser General Public License (LGPL) libraries
are used in this USGS product:

    SPARSKIT version 2.0
      ilut, luson, and qsplit 
      (https://www-users.cse.umn.edu/~saad/software/SPARSKIT/)

    RCM - Reverse Cuthill McKee Ordering
      (https://people.math.sc.edu/Burkardt/f_src/rcm/rcm.html)

    BLAS - Basic Linear Algebra Subprograms Level 1
      (https://people.math.sc.edu/Burkardt/f_src/blas1_d/blas1_d.html)

    SPARSEKIT - Sparse Matrix Utility Package
      amux, dperm, dvperm, rperm, and cperm
      (https://people.sc.fsu.edu/~jburkardt/f77_src/sparsekit/sparsekit.html)

The following BSD-3 License libraries are used in this USGS product:

    Modern Fortran DAG Library
      Copyright (c) 2018, Jacob Williams
      All rights reserved.
      (https://github.com/jacobwilliams/daglib)

MODFLOW 6 compiler options: /O2 /heap-arrays:0 /fpe:0 /traceback /nologo /fpp
/c /module:win64\mod_mf6\ /object:win64\obj_mf6\

System command used to initiate simulation:
C:\Users\gross.DESKTOP-AIRQM2M\anaconda3\Scripts\mf6.exe

MODFLOW was compiled using uniform precision.

Real Variables
  KIND: 8
  TINY (smallest non-zero value):    2.225074-308
  HUGE (largest value):    1.797693+308
  PRECISION: 15
  SIZE IN BITS: 64

Integer Variables
  KIND: 4
  HUGE (largest value): 2147483647
  SIZE IN BITS: 32

Long Integer Variables
  KIND: 8
  HUGE (largest value): 9223372036854775807
  SIZE IN BITS: 64

Logical Variables
  KIND: 4
  SIZE IN BITS: 32
 

 OPENED mfsim.nam
 FILE TYPE:NAM6               UNIT 1001   STATUS:OLD                 
 FORMAT:FORMATTED              ACCESS:SEQUENTIAL          
 ACTION:READ                

 # File generated by Flopy version 3.9.1 on 04/30/2025 at 07:00:21.

 OPENED 08_p02.tdis
 FILE TYPE:TDIS6              UNIT 1002   STATUS:OLD                 
 FORMAT:FORMATTED              ACCESS:SEQUENTIAL          
 ACTION:READ                

 # File generated by Flopy version 3.9.1 on 04/30/2025 at 07:00:21.

 OPENED 08_p02.nam
 FILE TYPE:GWF6               UNIT 1003   STATUS:OLD                 
 FORMAT:FORMATTED              ACCESS:SEQUENTIAL          
 ACTION:READ                

 # File generated by Flopy version 3.9.1 on 04/30/2025 at 07:00:21.

 OPENED 08_p02.dis
 FILE TYPE:DIS6               UNIT 1004   STATUS:OLD                 
 FORMAT:FORMATTED              ACCESS:SEQUENTIAL          
 ACTION:READ                

 # File generated by Flopy version 3.9.1 on 04/30/2025 at 07:00:21.

 OPENED 08_p02.npf
 FILE TYPE:NPF6               UNIT 1005   STATUS:OLD                 
 FORMAT:FORMATTED              ACCESS:SEQUENTIAL          
 ACTION:READ                

 # File generated by Flopy version 3.9.1 on 04/30/2025 at 07:00:21.

 OPENED 08_p02.sto
 FILE TYPE:STO6               UNIT 1006   STATUS:OLD                 
 FORMAT:FORMATTED              ACCESS:SEQUENTIAL          
 ACTION:READ                

 # File generated by Flopy version 3.9.1 on 04/30/2025 at 07:00:21.

 OPENED 08_p02.ic
 FILE TYPE:IC6                UNIT 1007   STATUS:OLD                 
 FORMAT:FORMATTED              ACCESS:SEQUENTIAL          
 ACTION:READ                

 # File generated by Flopy version 3.9.1 on 04/30/2025 at 07:00:21.

 OPENED 08_p02.oc
 FILE TYPE:OC6       UNIT 1008   STATUS:OLD                 
 FORMAT:FORMATTED              ACCESS:SEQUENTIAL          
 ACTION:READ                


 OPENED 08_p02.rch
 FILE TYPE:RCH6               UNIT 1010   STATUS:OLD                 
 FORMAT:FORMATTED              ACCESS:SEQUENTIAL          
 ACTION:READ                

 # File generated by Flopy version 3.9.1 on 04/30/2025 at 07:00:22.

 OPENED 08_p02.chd
 FILE TYPE:CHD6               UNIT 1011   STATUS:OLD                 
 FORMAT:FORMATTED              ACCESS:SEQUENTIAL          
 ACTION:READ                

 # File generated by Flopy version 3.9.1 on 04/30/2025 at 07:00:22.

 READING SIMULATION OPTIONS
    MAXIMUM NUMBER OF ERRORS THAT WILL BE STORED IS 1000
 END OF SIMULATION OPTIONS

 READING SIMULATION TIMING

 TDIS -- TEMPORAL DISCRETIZATION PACKAGE,
 VERSION 1 : 11/13/2014 - INPUT READ FROM MEMPATH: __INPUT__/SIM/TDIS                                
 PROCESSING TDIS OPTIONS
    SIMULATION TIME UNIT IS DAYS
 END OF TDIS OPTIONS
 PROCESSING TDIS DIMENSIONS
    4 STRESS PERIOD(S) IN SIMULATION
 END OF TDIS DIMENSIONS
 PROCESSING TDIS PERIODDATA


 STRESS PERIOD     LENGTH       TIME STEPS     MULTIPLIER FOR DELT
 ----------------------------------------------------------------------------
        1         190.0000         10                    1.000
        2         518.0000          2                    1.000
        3         1921.000         17                    1.000
        4         1.000000          1                    1.000
 END OF TDIS PERIODDATA
 END OF SIMULATION TIMING

 READING SIMULATION MODELS
    GWF6 model 1 will be created
 END OF SIMULATION MODELS

 READING SIMULATION EXCHANGES
 END OF SIMULATION EXCHANGES

 READING SOLUTIONGROUP

 Creating solution: SLN_1           

 OPENED 08_p02.ims
 FILE TYPE:IMS   UNIT 1013   STATUS:OLD                 
 FORMAT:FORMATTED              ACCESS:SEQUENTIAL          
 ACTION:READ                

 END OF SOLUTIONGROUP

PROCESSING MODEL CONNECTIONS

 IMS -- ITERATIVE MODEL SOLUTION PACKAGE, VERSION 6, 4/28/2017
         INPUT READ FROM UNIT 1013
 # File generated by Flopy version 3.9.1 on 04/30/2025 at 07:00:21.

 PROCESSING IMS OPTIONS
 COMPLEX OPTION:
 DEFAULT SOLVER INPUT VALUES REFLECT STRONGLY NONLINEAR MODEL
 PSEUDO-TRANSIENT CONTINUATION DISABLED FOR ALL STRESS-PERIOD(S)
 END OF IMS OPTIONS

 PROCESSING IMS NONLINEAR
 END OF IMS NONLINEAR DATA
 **UNDER-RELAXATION WILL BE USED***
 

 PROCESSING LINEAR DATA
 END OF LINEAR DATA
 ***IMS LINEAR SOLVER WILL BE USED***

 IMSLINEAR -- UNSTRUCTURED LINEAR SOLUTION PACKAGE, VERSION 8, 04/28/2017
 An asymmetric matrix will be solved

 OUTER ITERATION CONVERGENCE CRITERION    (DVCLOSE) =    0.100000E-05
 MAXIMUM NUMBER OF OUTER ITERATIONS        (MXITER) = 500
 SOLVER PRINTOUT INDEX                     (IPRIMS) = 1
 NONLINEAR ITERATION METHOD            (NONLINMETH) = 3
 LINEAR SOLUTION METHOD                   (LINMETH) = 1
 UNDER-RELAXATION WEIGHT REDUCTION FACTOR   (THETA) =    0.800000E+00
 UNDER-RELAXATION WEIGHT INCREASE INCREMENT (KAPPA) =    0.100000E-03
 UNDER-RELAXATION PREVIOUS HISTORY FACTOR   (GAMMA) =    0.000000E+00
 UNDER-RELAXATION MOMENTUM TERM         (AMOMENTUM) =    0.000000E+00
 MAXIMUM NUMBER OF BACKTRACKS            (NUMTRACK) = 20
 BACKTRACKING TOLERANCE FACTOR               (BTOL) =    0.105000E+01
 BACKTRACKING REDUCTION FACTOR             (BREDUC) =    0.100000E+00
 BACKTRACKING RESIDUAL LIMIT              (RES_LIM) =    0.200000E-02

       SOLUTION BY THE BICONJUGATE-GRADIENT STABILIZED METHOD
 ------------------------------------------------------------------
 MAXIMUM OF 500 CALLS OF SOLUTION ROUTINE
 MAXIMUM OF 100 INTERNAL ITERATIONS PER CALL TO SOLUTION ROUTINE
 LINEAR ACCELERATION METHOD            = BCGS      
 MATRIX PRECONDITIONING TYPE           = INCOMPLETE LUT      
 MATRIX SCALING APPROACH               = NO SCALING          
 MATRIX REORDERING APPROACH            = ORIGINAL ORDERING        
 NUMBER OF ORTHOGONALIZATIONS          = 2
 HEAD CHANGE CRITERION FOR CLOSURE     =    0.10000E-05
 RESIDUAL CHANGE CRITERION FOR CLOSURE =    0.10000E+04
 RESIDUAL CONVERGENCE OPTION           = 0
 RESIDUAL CONVERGENCE NORM             = INFINITY NORM   
 RELAXATION FACTOR                     =    0.00000E+00
 NUMBER OF LEVELS                      =              5
 DROP TOLERANCE                        =    0.10000E-03


 
    Solving:  Stress period:     1    Time step:     1
 
1
 STRESS PERIOD NO. 1, LENGTH =   190.0000    
 ------------------------------------------
 NUMBER OF TIME STEPS = 10
 MULTIPLIER FOR DELT =     1.000
 INITIAL TIME STEP SIZE =   19.00000    

 SLN_1 OUTER ITERATION SUMMARY
 ----------------------------------------------------------------------------------------------------------------------------------------------------------------
                                OUTER      INNER  BACKTRACK  BACKTRACK        INCOMING        OUTGOING                    STEP   MAXIMUM CHANGE MODEL-(CELLID) OR
 OUTER ITERATION STEP       ITERATION  ITERATION       FLAG ITERATIONS        RESIDUAL        RESIDUAL  MAXIMUM CHANGE SUCCESS             MODEL-PACKAGE-(NUMBER)
 ----------------------------------------------------------------------------------------------------------------------------------------------------------------
 Backtracking                       1                     0          0       1562.5000       1562.5000                       *                                   
 Model                              1         56                                                             35.635774                              1_GWF-(1,1,1)
 Backtracking                       2                     1          2       8856.3435       1551.9230                                                           
 Model                              2          6                                                             12.440192                              1_GWF-(1,1,1)
 Backtracking                       3                     0          0       109.61851       109.61851                       *                                   
 Model                              3          5                                                           -0.13711172                              1_GWF-(1,2,2)
 Backtracking                       4                     0          0       16.675971       16.675971                       *                                   
 Model                              4          5                                                       -2.81191785E-02                              1_GWF-(1,2,2)
 Backtracking                       5                     0          0       3.4608848       3.4608848                       *                                   
 Model                              5          4                                                       -5.64030363E-03                              1_GWF-(3,2,2)
 Backtracking                       6                     0          0      0.76606233      0.76606233                       *                                   
 Model                              6          4                                                       -1.12771541E-03                              1_GWF-(1,2,2)
 Backtracking                       7                     0          0      0.19376545      0.19376545                       *                                   
 Model                              7          3                                                       -2.25232267E-04                              1_GWF-(4,2,2)
 Backtracking                       8                     0          0  5.81288349E-02  5.81288349E-02                       *                                   
 Model                              8          2                                                       -4.50264288E-05                              1_GWF-(9,2,2)
 Backtracking                       9                     0          0  2.04093645E-02  2.04093645E-02                       *                                   
 Model                              9          2                                                       -8.92076511E-06                              1_GWF-(3,2,2)
 Backtracking                      10                     0          0  9.38131762E-03  9.38131762E-03                       *                                   
 Model                             10          2                                                        2.48119133E-06                             1_GWF-(12,3,5)
 Backtracking                      11                     0          0  6.75638083E-03  6.75638083E-03                       *                                   
 Model                             11          1                                                        8.88327747E-07       *                     1_GWF-(12,3,5)
 ----------------------------------------------------------------------------------------------------------------------------------------------------------------


 11 CALLS TO NUMERICAL SOLUTION IN TIME STEP 1 STRESS PERIOD 1
 90 TOTAL ITERATIONS
 
    Solving:  Stress period:     1    Time step:     2
 

 SLN_1 OUTER ITERATION SUMMARY
 ----------------------------------------------------------------------------------------------------------------------------------------------------------------
                                OUTER      INNER  BACKTRACK  BACKTRACK        INCOMING        OUTGOING                    STEP   MAXIMUM CHANGE MODEL-(CELLID) OR
 OUTER ITERATION STEP       ITERATION  ITERATION       FLAG ITERATIONS        RESIDUAL        RESIDUAL  MAXIMUM CHANGE SUCCESS             MODEL-PACKAGE-(NUMBER)
 ----------------------------------------------------------------------------------------------------------------------------------------------------------------
 Backtracking                       1                     0          0       1118.2060       1118.2060                       *                                   
 Model                              1          7                                                             2.8487048                              1_GWF-(1,1,1)
 Backtracking                       2                     0          0       704.94367       704.94367                       *                                   
 Model                              2          6                                                           -0.92488842                              1_GWF-(8,1,1)
 Backtracking                       3                     0          0       143.41445       143.41445                       *                                   
 Model                              3          5                                                           -0.19200874                              1_GWF-(1,1,1)
 Backtracking                       4                     0          0       28.781071       28.781071                       *                                   
 Model                              4          5                                                       -3.86862100E-02                              1_GWF-(7,1,1)
 Backtracking                       5                     0          0       5.7554011       5.7554011                       *                                   
 Model                              5          4                                                       -7.74182550E-03                              1_GWF-(8,1,1)
 Backtracking                       6                     0          0       1.1498658       1.1498658                       *                                   
 Model                              6          4                                                       -1.54653630E-03                              1_GWF-(1,1,1)
 Backtracking                       7                     0          0      0.22992986      0.22992986                       *                                   
 Model                              7          3                                                       -3.08707012E-04                              1_GWF-(1,1,1)
 Backtracking                       8                     0          0  4.66912216E-02  4.66912216E-02                       *                                   
 Model                              8          3                                                       -6.15890233E-05                              1_GWF-(1,1,1)
 Backtracking                       9                     0          0  1.18406969E-02  1.18406969E-02                       *                                   
 Model                              9          2                                                       -1.22791740E-05                              1_GWF-(8,1,1)
 Backtracking                      10                     0          0  7.39121344E-03  7.39121344E-03                       *                                   
 Model                             10          2                                                       -2.44884954E-06                              1_GWF-(7,1,1)
 Backtracking                      11                     0          0  7.09511318E-03  7.09511318E-03                       *                                   
 Model                             11          1                                                       -4.86040115E-07       *                      1_GWF-(1,1,1)
 ----------------------------------------------------------------------------------------------------------------------------------------------------------------


 11 CALLS TO NUMERICAL SOLUTION IN TIME STEP 2 STRESS PERIOD 1
 42 TOTAL ITERATIONS
 
    Solving:  Stress period:     1    Time step:     3
 

 SLN_1 OUTER ITERATION SUMMARY
 ----------------------------------------------------------------------------------------------------------------------------------------------------------------
                                OUTER      INNER  BACKTRACK  BACKTRACK        INCOMING        OUTGOING                    STEP   MAXIMUM CHANGE MODEL-(CELLID) OR
 OUTER ITERATION STEP       ITERATION  ITERATION       FLAG ITERATIONS        RESIDUAL        RESIDUAL  MAXIMUM CHANGE SUCCESS             MODEL-PACKAGE-(NUMBER)
 ----------------------------------------------------------------------------------------------------------------------------------------------------------------
 Backtracking                       1                     0          0       727.79323       727.79323                       *                                   
 Model                              1          6                                                             2.2742901                              1_GWF-(9,1,1)
 Backtracking                       2                     0          0       126.98085       126.98085                       *                                   
 Model                              2          5                                                            0.29512675                              1_GWF-(9,2,2)
 Backtracking                       3                     0          0      0.63324315      0.63324315                       *                                   
 Model                              3          3                                                       -1.07852936E-03                              1_GWF-(3,2,2)
 Backtracking                       4                     0          0      0.10738603      0.10738603                       *                                   
 Model                              4          2                                                       -2.15732604E-04                              1_GWF-(1,2,2)
 Backtracking                       5                     0          0  2.28370237E-02  2.28370237E-02                       *                                   
 Model                              5          2                                                       -4.31358763E-05                              1_GWF-(3,2,2)
 Backtracking                       6                     0          0  8.80370863E-03  8.80370863E-03                       *                                   
 Model                              6          2                                                       -8.62066492E-06                              1_GWF-(8,2,2)
 Backtracking                       7                     0          0  7.67910432E-03  7.67910432E-03                       *                                   
 Model                              7          2                                                       -1.72196658E-06                              1_GWF-(7,2,2)
 Backtracking                       8                     0          0  7.62009937E-03  7.62009937E-03                       *                                   
 Model                              8          1                                                       -3.42967041E-07       *                      1_GWF-(1,2,2)
 ----------------------------------------------------------------------------------------------------------------------------------------------------------------


 8 CALLS TO NUMERICAL SOLUTION IN TIME STEP 3 STRESS PERIOD 1
 23 TOTAL ITERATIONS
 
    Solving:  Stress period:     1    Time step:     4
 

 SLN_1 OUTER ITERATION SUMMARY
 ----------------------------------------------------------------------------------------------------------------------------------------------------------------
                                OUTER      INNER  BACKTRACK  BACKTRACK        INCOMING        OUTGOING                    STEP   MAXIMUM CHANGE MODEL-(CELLID) OR
 OUTER ITERATION STEP       ITERATION  ITERATION       FLAG ITERATIONS        RESIDUAL        RESIDUAL  MAXIMUM CHANGE SUCCESS             MODEL-PACKAGE-(NUMBER)
 ----------------------------------------------------------------------------------------------------------------------------------------------------------------
 Backtracking                       1                     0          0       722.47835       722.47835                       *                                   
 Model                              1          6                                                             1.6468529                              1_GWF-(8,1,1)
 Backtracking                       2                     0          0       261.75738       261.75738                       *                                   
 Model                              2          5                                                           -0.58939416                              1_GWF-(6,1,1)
 Backtracking                       3                     0          0       54.555573       54.555573                       *                                   
 Model                              3          5                                                           -0.13466614                              1_GWF-(7,1,1)
 Backtracking                       4                     0          0       10.980961       10.980961                       *                                   
 Model                              4          5                                                       -2.72552521E-02                              1_GWF-(1,1,1)
 Backtracking                       5                     0          0       3.5358339       3.5358339                       *                                   
 Model                              5          3                                                        2.08671523E-03                              1_GWF-(8,1,1)
 Backtracking                       6                     0          0       1.1731993       1.1731993                       *                                   
 Model                              6          3                                                        7.50862175E-04                              1_GWF-(8,1,1)
 Backtracking                       7                     0          0      0.40286748      0.40286748                       *                                   
 Model                              7          3                                                        2.70072043E-04                              1_GWF-(8,1,1)
 Backtracking                       8                     0          0      0.14152116      0.14152116                       *                                   
 Model                              8          2                                                        9.71145235E-05                              1_GWF-(8,1,1)
 Backtracking                       9                     0          0  5.09794421E-02  5.09794421E-02                       *                                   
 Model                              9          2                                                        3.49215898E-05                              1_GWF-(8,1,1)
 Backtracking                      10                     0          0  1.99625941E-02  1.99625941E-02                       *                                   
 Model                             10          2                                                        1.25541293E-05                              1_GWF-(8,1,1)
 Backtracking                      11                     0          0  1.06028094E-02  1.06028094E-02                       *                                   
 Model                             11          2                                                        4.51191563E-06                              1_GWF-(8,1,1)
 Backtracking                      12                     0          0  8.56655115E-03  8.56655115E-03                       *                                   
 Model                             12          2                                                        1.62112630E-06                              1_GWF-(8,1,1)
 Backtracking                      13                     0          0  8.21559758E-03  8.21559758E-03                       *                                   
 Model                             13          1                                                        5.81757547E-07       *                      1_GWF-(8,1,1)
 ----------------------------------------------------------------------------------------------------------------------------------------------------------------


 13 CALLS TO NUMERICAL SOLUTION IN TIME STEP 4 STRESS PERIOD 1
 41 TOTAL ITERATIONS
 
    Solving:  Stress period:     1    Time step:     5
 

 SLN_1 OUTER ITERATION SUMMARY
 ----------------------------------------------------------------------------------------------------------------------------------------------------------------
                                OUTER      INNER  BACKTRACK  BACKTRACK        INCOMING        OUTGOING                    STEP   MAXIMUM CHANGE MODEL-(CELLID) OR
 OUTER ITERATION STEP       ITERATION  ITERATION       FLAG ITERATIONS        RESIDUAL        RESIDUAL  MAXIMUM CHANGE SUCCESS             MODEL-PACKAGE-(NUMBER)
 ----------------------------------------------------------------------------------------------------------------------------------------------------------------
 Backtracking                       1                     0          0       617.44852       617.44852                       *                                   
 Model                              1          6                                                             1.0358463                              1_GWF-(3,2,1)
 Backtracking                       2                     0          0       328.99512       328.99512                       *                                   
 Model                              2          6                                                            0.37898022                              1_GWF-(8,1,1)
 Backtracking                       3                     0          0       55.342348       55.342348                       *                                   
 Model                              3          5                                                       -7.32282347E-02                              1_GWF-(2,2,1)
 Backtracking                       4                     0          0       11.112557       11.112557                       *                                   
 Model                              4          4                                                       -1.47477878E-02                              1_GWF-(1,2,1)
 Backtracking                       5                     0          0       2.2227692       2.2227692                       *                                   
 Model                              5          4                                                       -2.95109602E-03                              1_GWF-(2,1,2)
 Backtracking                       6                     0          0      0.44449360      0.44449360                       *                                   
 Model                              6          3                                                       -5.89514553E-04                              1_GWF-(1,2,1)
 Backtracking                       7                     0          0  8.95612877E-02  8.95612877E-02                       *                                   
 Model                              7          2                                                       -1.17667988E-04                              1_GWF-(1,1,2)
 Backtracking                       8                     0          0  2.01396868E-02  2.01396868E-02                       *                                   
 Model                              8          2                                                       -2.34799376E-05                              1_GWF-(1,2,1)
 Backtracking                       9                     0          0  9.49391497E-03  9.49391497E-03                       *                                   
 Model                              9          2                                                       -4.68310477E-06                              1_GWF-(6,2,1)
 Backtracking                      10                     0          0  8.67099504E-03  8.67099504E-03                       *                                   
 Model                             10          1                                                       -9.32738921E-07       *                      1_GWF-(1,1,2)
 ----------------------------------------------------------------------------------------------------------------------------------------------------------------


 10 CALLS TO NUMERICAL SOLUTION IN TIME STEP 5 STRESS PERIOD 1
 35 TOTAL ITERATIONS
 
    Solving:  Stress period:     1    Time step:     6
 

 SLN_1 OUTER ITERATION SUMMARY
 ----------------------------------------------------------------------------------------------------------------------------------------------------------------
                                OUTER      INNER  BACKTRACK  BACKTRACK        INCOMING        OUTGOING                    STEP   MAXIMUM CHANGE MODEL-(CELLID) OR
 OUTER ITERATION STEP       ITERATION  ITERATION       FLAG ITERATIONS        RESIDUAL        RESIDUAL  MAXIMUM CHANGE SUCCESS             MODEL-PACKAGE-(NUMBER)
 ----------------------------------------------------------------------------------------------------------------------------------------------------------------
 Backtracking                       1                     0          0       536.47866       536.47866                       *                                   
 Model                              1          6                                                            0.90283605                              1_GWF-(7,1,1)
 Backtracking                       2                     0          0       205.68035       205.68035                       *                                   
 Model                              2          6                                                            0.31707850                              1_GWF-(9,3,1)
 Backtracking                       3                     0          0       18.269662       18.269662                       *                                   
 Model                              3          4                                                       -2.18934630E-02                              1_GWF-(2,2,2)
 Backtracking                       4                     0          0       3.6424569       3.6424569                       *                                   
 Model                              4          3                                                       -4.38592293E-03                              1_GWF-(1,2,2)
 Backtracking                       5                     0          0      0.72824911      0.72824911                       *                                   
 Model                              5          3                                                       -8.76676853E-04                              1_GWF-(5,2,2)
 Backtracking                       6                     0          0      0.14602946      0.14602946                       *                                   
 Model                              6          2                                                       -1.75082209E-04                              1_GWF-(3,2,2)
 Backtracking                       7                     0          0  3.07583444E-02  3.07583444E-02                       *                                   
 Model                              7          2                                                       -3.49518494E-05                              1_GWF-(6,2,2)
 Backtracking                       8                     0          0  1.09025972E-02  1.09025972E-02                       *                                   
 Model                              8          2                                                       -6.97391948E-06                              1_GWF-(7,2,2)
 Backtracking                       9                     0          0  9.10441870E-03  9.10441870E-03                       *                                   
 Model                              9          2                                                       -1.39080901E-06                              1_GWF-(1,2,2)
 Backtracking                      10                     0          0  8.99172570E-03  8.99172570E-03                       *                                   
 Model                             10          1                                                       -2.77033678E-07       *                      1_GWF-(6,2,2)
 ----------------------------------------------------------------------------------------------------------------------------------------------------------------


 10 CALLS TO NUMERICAL SOLUTION IN TIME STEP 6 STRESS PERIOD 1
 31 TOTAL ITERATIONS
 
    Solving:  Stress period:     1    Time step:     7
 

 SLN_1 OUTER ITERATION SUMMARY
 ----------------------------------------------------------------------------------------------------------------------------------------------------------------
                                OUTER      INNER  BACKTRACK  BACKTRACK        INCOMING        OUTGOING                    STEP   MAXIMUM CHANGE MODEL-(CELLID) OR
 OUTER ITERATION STEP       ITERATION  ITERATION       FLAG ITERATIONS        RESIDUAL        RESIDUAL  MAXIMUM CHANGE SUCCESS             MODEL-PACKAGE-(NUMBER)
 ----------------------------------------------------------------------------------------------------------------------------------------------------------------
 Backtracking                       1                     0          0       496.30750       496.30750                       *                                   
 Model                              1          6                                                            0.83315450                              1_GWF-(7,1,1)
 Backtracking                       2                     0          0       120.46838       120.46838                       *                                   
 Model                              2          5                                                            0.21295153                              1_GWF-(9,3,2)
 Backtracking                       3                     0          0      0.48103386      0.48103386                       *                                   
 Model                              3          3                                                       -6.51193610E-04                              1_GWF-(7,3,2)
 Backtracking                       4                     0          0  7.98631881E-02  7.98631881E-02                       *                                   
 Model                              4          3                                                       -1.30248419E-04                              1_GWF-(1,3,2)
 Backtracking                       5                     0          0  1.86977206E-02  1.86977206E-02                       *                                   
 Model                              5          2                                                       -2.60326972E-05                              1_GWF-(5,2,3)
 Backtracking                       6                     0          0  9.97537137E-03  9.97537137E-03                       *                                   
 Model                              6          2                                                       -5.20609228E-06                              1_GWF-(6,3,2)
 Backtracking                       7                     0          0  9.36415737E-03  9.36415737E-03                       *                                   
 Model                              7          2                                                       -1.04068977E-06                              1_GWF-(3,3,2)
 Backtracking                       8                     0          0  9.31928504E-03  9.31928504E-03                       *                                   
 Model                              8          1                                                       -2.05813269E-07       *                      1_GWF-(4,3,2)
 ----------------------------------------------------------------------------------------------------------------------------------------------------------------


 8 CALLS TO NUMERICAL SOLUTION IN TIME STEP 7 STRESS PERIOD 1
 24 TOTAL ITERATIONS
 
    Solving:  Stress period:     1    Time step:     8
 

 SLN_1 OUTER ITERATION SUMMARY
 ----------------------------------------------------------------------------------------------------------------------------------------------------------------
                                OUTER      INNER  BACKTRACK  BACKTRACK        INCOMING        OUTGOING                    STEP   MAXIMUM CHANGE MODEL-(CELLID) OR
 OUTER ITERATION STEP       ITERATION  ITERATION       FLAG ITERATIONS        RESIDUAL        RESIDUAL  MAXIMUM CHANGE SUCCESS             MODEL-PACKAGE-(NUMBER)
 ----------------------------------------------------------------------------------------------------------------------------------------------------------------
 Backtracking                       1                     0          0       475.87344       475.87344                       *                                   
 Model                              1          6                                                            0.70657489                              1_GWF-(1,1,1)
 Backtracking                       2                     0          0       148.32213       148.32213                       *                                   
 Model                              2          5                                                           -0.24491764                              1_GWF-(1,1,1)
 Backtracking                       3                     0          0       22.734912       22.734912                       *                                   
 Model                              3          4                                                       -5.05828105E-02                              1_GWF-(1,1,1)
 Backtracking                       4                     0          0       4.5573974       4.5573974                       *                                   
 Model                              4          4                                                       -1.01789331E-02                              1_GWF-(6,1,1)
 Backtracking                       5                     0          0      0.91140814      0.91140814                       *                                   
 Model                              5          3                                                       -2.03643672E-03                              1_GWF-(1,1,1)
 Backtracking                       6                     0          0      0.18255668      0.18255668                       *                                   
 Model                              6          2                                                       -4.06775284E-04                              1_GWF-(6,1,1)
 Backtracking                       7                     0          0  3.79178876E-02  3.79178876E-02                       *                                   
 Model                              7          2                                                       -8.12043104E-05                              1_GWF-(5,1,1)
 Backtracking                       8                     0          0  1.22769559E-02  1.22769559E-02                       *                                   
 Model                              8          2                                                       -1.62020571E-05                              1_GWF-(6,1,1)
 Backtracking                       9                     0          0  9.80870281E-03  9.80870281E-03                       *                                   
 Model                              9          2                                                       -3.23103943E-06                              1_GWF-(1,1,1)
 Backtracking                      10                     0          0  9.66374412E-03  9.66374412E-03                       *                                   
 Model                             10          1                                                       -6.43752678E-07       *                      1_GWF-(1,1,1)
 ----------------------------------------------------------------------------------------------------------------------------------------------------------------


 10 CALLS TO NUMERICAL SOLUTION IN TIME STEP 8 STRESS PERIOD 1
 31 TOTAL ITERATIONS
 
    Solving:  Stress period:     1    Time step:     9
 

 SLN_1 OUTER ITERATION SUMMARY
 ----------------------------------------------------------------------------------------------------------------------------------------------------------------
                                OUTER      INNER  BACKTRACK  BACKTRACK        INCOMING        OUTGOING                    STEP   MAXIMUM CHANGE MODEL-(CELLID) OR
 OUTER ITERATION STEP       ITERATION  ITERATION       FLAG ITERATIONS        RESIDUAL        RESIDUAL  MAXIMUM CHANGE SUCCESS             MODEL-PACKAGE-(NUMBER)
 ----------------------------------------------------------------------------------------------------------------------------------------------------------------
 Backtracking                       1                     0          0       446.89914       446.89914                       *                                   
 Model                              1          7                                                            0.62553611                              1_GWF-(1,1,3)
 Backtracking                       2                     0          0       1.5407354       1.5407354                       *                                   
 Model                              2          4                                                       -1.80522465E-03                              1_GWF-(6,1,3)
 Backtracking                       3                     0          0      0.27177473      0.27177473                       *                                   
 Model                              3          3                                                       -3.61038996E-04                              1_GWF-(1,3,1)
 Backtracking                       4                     0          0  5.47799274E-02  5.47799274E-02                       *                                   
 Model                              4          3                                                       -7.21933347E-05                              1_GWF-(1,1,3)
 Backtracking                       5                     0          0  1.43554005E-02  1.43554005E-02                       *                                   
 Model                              5          2                                                       -1.44148134E-05                              1_GWF-(1,1,3)
 Backtracking                       6                     0          0  1.00963337E-02  1.00963337E-02                       *                                   
 Model                              6          2                                                       -2.89037735E-06                              1_GWF-(7,1,3)
 Backtracking                       7                     0          0  9.96322922E-03  9.96322922E-03                       *                                   
 Model                              7          1                                                       -5.64926687E-07       *                      1_GWF-(3,1,3)
 ----------------------------------------------------------------------------------------------------------------------------------------------------------------


 7 CALLS TO NUMERICAL SOLUTION IN TIME STEP 9 STRESS PERIOD 1
 22 TOTAL ITERATIONS
 
    Solving:  Stress period:     1    Time step:    10
 

 SLN_1 OUTER ITERATION SUMMARY
 ----------------------------------------------------------------------------------------------------------------------------------------------------------------
                                OUTER      INNER  BACKTRACK  BACKTRACK        INCOMING        OUTGOING                    STEP   MAXIMUM CHANGE MODEL-(CELLID) OR
 OUTER ITERATION STEP       ITERATION  ITERATION       FLAG ITERATIONS        RESIDUAL        RESIDUAL  MAXIMUM CHANGE SUCCESS             MODEL-PACKAGE-(NUMBER)
 ----------------------------------------------------------------------------------------------------------------------------------------------------------------
 Backtracking                       1                     0          0       422.86114       422.86114                       *                                   
 Model                              1          6                                                            0.55801270                              1_GWF-(5,3,1)
 Backtracking                       2                     0          0       198.59444       198.59444                       *                                   
 Model                              2          6                                                            0.21582000                              1_GWF-(7,1,1)
 Backtracking                       3                     0          0       31.077803       31.077803                       *                                   
 Model                              3          4                                                       -1.47261089E-02                              1_GWF-(8,3,3)
 Backtracking                       4                     0          0       6.2153397       6.2153397                       *                                   
 Model                              4          4                                                       -2.94813776E-03                              1_GWF-(1,3,3)
 Backtracking                       5                     0          0       1.2424712       1.2424712                       *                                   
 Model                              5          3                                                       -5.89202678E-04                              1_GWF-(7,3,3)
 Backtracking                       6                     0          0      0.24882508      0.24882508                       *                                   
 Model                              6          3                                                       -1.17675104E-04                              1_GWF-(4,3,3)
 Backtracking                       7                     0          0  5.11575018E-02  5.11575018E-02                       *                                   
 Model                              7          2                                                       -2.35008627E-05                              1_GWF-(1,3,3)
 Backtracking                       8                     0          0  1.46798685E-02  1.46798685E-02                       *                                   
 Model                              8          2                                                       -4.67914776E-06                              1_GWF-(1,3,3)
 Backtracking                       9                     0          0  1.05887112E-02  1.05887112E-02                       *                                   
 Model                              9          1                                                       -9.22135911E-07       *                      1_GWF-(8,3,3)
 ----------------------------------------------------------------------------------------------------------------------------------------------------------------


 9 CALLS TO NUMERICAL SOLUTION IN TIME STEP 10 STRESS PERIOD 1
 31 TOTAL ITERATIONS
 
    Solving:  Stress period:     2    Time step:     1
 
1
 STRESS PERIOD NO. 2, LENGTH =   518.0000    
 ------------------------------------------
 NUMBER OF TIME STEPS = 2
 MULTIPLIER FOR DELT =     1.000
 INITIAL TIME STEP SIZE =   259.0000    

 SLN_1 OUTER ITERATION SUMMARY
 ----------------------------------------------------------------------------------------------------------------------------------------------------------------
                                OUTER      INNER  BACKTRACK  BACKTRACK        INCOMING        OUTGOING                    STEP   MAXIMUM CHANGE MODEL-(CELLID) OR
 OUTER ITERATION STEP       ITERATION  ITERATION       FLAG ITERATIONS        RESIDUAL        RESIDUAL  MAXIMUM CHANGE SUCCESS             MODEL-PACKAGE-(NUMBER)
 ----------------------------------------------------------------------------------------------------------------------------------------------------------------
 Backtracking                       1                     0          0       398.41811       398.41811                       *                                   
 Model                              1         27                                                             4.2641155                              1_GWF-(6,1,3)
 Backtracking                       2                     1          1       446.43408       359.38560                                                           
 Model                              2         18                                                             3.7922899                              1_GWF-(5,1,3)
 Backtracking                       3                     1          1       393.01671       323.39220                                                           
 Model                              3         17                                                             3.3806939                              1_GWF-(4,3,1)
 Backtracking                       4                     1          1       385.33726       291.01026                                                           
 Model                              4         17                                                             3.0174668                              1_GWF-(6,3,1)
 Backtracking                       5                     1          1       379.72367       262.31887                                                           
 Model                              5         18                                                             2.5561936                              1_GWF-(7,1,4)
 Backtracking                       6                     1          1       284.21968       237.61695                                                           
 Model                              6         16                                                             2.3542154                              1_GWF-(1,3,2)
 Backtracking                       7                     1          1       253.49269       214.13270                                                           
 Model                              7         19                                                             2.2236191                              1_GWF-(6,2,3)
 Backtracking                       8                     0          0       191.95815       191.95815                       *                                   
 Model                              8         13                                                           -0.16542350                              1_GWF-(6,2,3)
 Backtracking                       9                     0          0       37.248329       37.248329                       *                                   
 Model                              9         11                                                       -3.32387200E-02                              1_GWF-(1,3,2)
 Backtracking                      10                     0          0       7.4947182       7.4947182                       *                                   
 Model                             10         10                                                       -6.68080948E-03                              1_GWF-(1,2,3)
 Backtracking                      11                     0          0       1.5158331       1.5158331                       *                                   
 Model                             11          8                                                       -1.33615237E-03                              1_GWF-(1,3,2)
 Backtracking                      12                     0          0      0.31100915      0.31100915                       *                                   
 Model                             12          6                                                       -2.66724342E-04                              1_GWF-(5,2,3)
 Backtracking                      13                     0          0  6.61125181E-02  6.61125181E-02                       *                                   
 Model                             13          6                                                       -5.35924928E-05                              1_GWF-(1,2,3)
 Backtracking                      14                     0          0  1.50979349E-02  1.50979349E-02                       *                                   
 Model                             14          2                                                       -9.40105078E-06                              1_GWF-(6,3,2)
 Backtracking                      15                     0          0  4.25989917E-03  4.25989917E-03                       *                                   
 Model                             15          2                                                       -2.90226458E-06                              1_GWF-(1,2,3)
 Backtracking                      16                     0          0  1.66660270E-03  1.66660270E-03                       *                                   
 Model                             16          1                                                       -5.01928341E-07       *                      1_GWF-(1,2,3)
 ----------------------------------------------------------------------------------------------------------------------------------------------------------------


 16 CALLS TO NUMERICAL SOLUTION IN TIME STEP 1 STRESS PERIOD 2
 191 TOTAL ITERATIONS
 
    Solving:  Stress period:     2    Time step:     2
 

 SLN_1 OUTER ITERATION SUMMARY
 ----------------------------------------------------------------------------------------------------------------------------------------------------------------
                                OUTER      INNER  BACKTRACK  BACKTRACK        INCOMING        OUTGOING                    STEP   MAXIMUM CHANGE MODEL-(CELLID) OR
 OUTER ITERATION STEP       ITERATION  ITERATION       FLAG ITERATIONS        RESIDUAL        RESIDUAL  MAXIMUM CHANGE SUCCESS             MODEL-PACKAGE-(NUMBER)
 ----------------------------------------------------------------------------------------------------------------------------------------------------------------
 Backtracking                       1                     0          0       254.77317       254.77317                       *                                   
 Model                              1         18                                                             2.4241053                              1_GWF-(5,3,3)
 Backtracking                       2                     0          0       220.96334       220.96334                       *                                   
 Model                              2         13                                                           -0.19638514                              1_GWF-(3,1,2)
 Backtracking                       3                     0          0       29.188839       29.188839                       *                                   
 Model                              3         12                                                       -4.10813062E-02                              1_GWF-(1,2,1)
 Backtracking                       4                     0          0       5.8425402       5.8425402                       *                                   
 Model                              4          8                                                       -8.27610430E-03                              1_GWF-(1,2,1)
 Backtracking                       5                     0          0       1.1684529       1.1684529                       *                                   
 Model                              5          5                                                       -1.65492801E-03                              1_GWF-(1,2,1)
 Backtracking                       6                     0          0      0.23966058      0.23966058                       *                                   
 Model                              6          7                                                       -1.75657174E-04                              1_GWF-(1,1,2)
 Backtracking                       7                     0          0  6.44908183E-02  6.44908183E-02                       *                                   
 Model                              7          6                                                       -3.50804617E-05                              1_GWF-(5,2,1)
 Backtracking                       8                     0          0  1.88599254E-02  1.88599254E-02                       *                                   
 Model                              8          4                                                        1.24683965E-05                              1_GWF-(7,1,1)
 Backtracking                       9                     0          0  6.22517226E-03  6.22517226E-03                       *                                   
 Model                              9          3                                                        4.33410169E-06                              1_GWF-(7,1,1)
 Backtracking                      10                     0          0  2.37693795E-03  2.37693795E-03                       *                                   
 Model                             10          2                                                        1.76641664E-06                              1_GWF-(7,1,1)
 Backtracking                      11                     0          0  1.30833076E-03  1.30833076E-03                       *                                   
 Model                             11          1                                                        4.18657386E-07       *                      1_GWF-(7,1,1)
 ----------------------------------------------------------------------------------------------------------------------------------------------------------------


 11 CALLS TO NUMERICAL SOLUTION IN TIME STEP 2 STRESS PERIOD 2
 79 TOTAL ITERATIONS
 
    Solving:  Stress period:     3    Time step:     1
 
1
 STRESS PERIOD NO. 3, LENGTH =   1921.000    
 ------------------------------------------
 NUMBER OF TIME STEPS = 17
 MULTIPLIER FOR DELT =     1.000
 INITIAL TIME STEP SIZE =   113.0000    

 SLN_1 OUTER ITERATION SUMMARY
 ----------------------------------------------------------------------------------------------------------------------------------------------------------------
                                OUTER      INNER  BACKTRACK  BACKTRACK        INCOMING        OUTGOING                    STEP   MAXIMUM CHANGE MODEL-(CELLID) OR
 OUTER ITERATION STEP       ITERATION  ITERATION       FLAG ITERATIONS        RESIDUAL        RESIDUAL  MAXIMUM CHANGE SUCCESS             MODEL-PACKAGE-(NUMBER)
 ----------------------------------------------------------------------------------------------------------------------------------------------------------------
 Backtracking                       1                     0          0       207.83172       207.83172                       *                                   
 Model                              1         12                                                            0.88224366                              1_GWF-(3,1,3)
 Backtracking                       2                     0          0       130.62083       130.62083                       *                                   
 Model                              2          9                                                            0.11533038                              1_GWF-(6,1,2)
 Backtracking                       3                     0          0       22.060334       22.060334                       *                                   
 Model                              3          5                                                       -1.62653789E-02                              1_GWF-(6,1,3)
 Backtracking                       4                     0          0       4.4083276       4.4083276                       *                                   
 Model                              4          5                                                       -3.26057880E-03                              1_GWF-(6,3,1)
 Backtracking                       5                     0          0      0.88093020      0.88093020                       *                                   
 Model                              5          4                                                       -6.51835508E-04                              1_GWF-(6,3,1)
 Backtracking                       6                     0          0      0.17603011      0.17603011                       *                                   
 Model                              6          2                                                       -1.29638118E-04                              1_GWF-(6,3,1)
 Backtracking                       7                     0          0  3.52882230E-02  3.52882230E-02                       *                                   
 Model                              7          3                                                       -2.64258999E-05                              1_GWF-(6,1,3)
 Backtracking                       8                     0          0  7.52850343E-03  7.52850343E-03                       *                                   
 Model                              8          2                                                       -5.33753744E-06                              1_GWF-(6,1,3)
 Backtracking                       9                     0          0  2.93732312E-03  2.93732312E-03                       *                                   
 Model                              9          2                                                       -1.01745835E-06                              1_GWF-(6,3,1)
 Backtracking                      10                     0          0  2.55049270E-03  2.55049270E-03                       *                                   
 Model                             10          1                                                       -2.00270584E-07       *                      1_GWF-(6,3,1)
 ----------------------------------------------------------------------------------------------------------------------------------------------------------------


 10 CALLS TO NUMERICAL SOLUTION IN TIME STEP 1 STRESS PERIOD 3
 45 TOTAL ITERATIONS
 
    Solving:  Stress period:     3    Time step:     2
 

 SLN_1 OUTER ITERATION SUMMARY
 ----------------------------------------------------------------------------------------------------------------------------------------------------------------
                                OUTER      INNER  BACKTRACK  BACKTRACK        INCOMING        OUTGOING                    STEP   MAXIMUM CHANGE MODEL-(CELLID) OR
 OUTER ITERATION STEP       ITERATION  ITERATION       FLAG ITERATIONS        RESIDUAL        RESIDUAL  MAXIMUM CHANGE SUCCESS             MODEL-PACKAGE-(NUMBER)
 ----------------------------------------------------------------------------------------------------------------------------------------------------------------
 Backtracking                       1                     0          0       197.87813       197.87813                       *                                   
 Model                              1         11                                                            0.76457578                              1_GWF-(1,2,3)
 Backtracking                       2                     0          0       84.648675       84.648675                       *                                   
 Model                              2          9                                                       -5.86424603E-02                              1_GWF-(4,2,3)
 Backtracking                       3                     0          0       16.742103       16.742103                       *                                   
 Model                              3          7                                                       -1.18555833E-02                              1_GWF-(1,2,3)
 Backtracking                       4                     0          0       3.3445094       3.3445094                       *                                   
 Model                              4          7                                                       -2.37623926E-03                              1_GWF-(4,3,2)
 Backtracking                       5                     0          0      0.66830423      0.66830423                       *                                   
 Model                              5          5                                                       -4.75697777E-04                              1_GWF-(1,3,2)
 Backtracking                       6                     0          0      0.13358339      0.13358339                       *                                   
 Model                              6          4                                                       -9.47148370E-05                              1_GWF-(1,3,2)
 Backtracking                       7                     0          0  2.68778252E-02  2.68778252E-02                       *                                   
 Model                              7          4                                                       -1.88391864E-05                              1_GWF-(1,2,3)
 Backtracking                       8                     0          0  5.99083153E-03  5.99083153E-03                       *                                   
 Model                              8          2                                                       -4.11827306E-06                              1_GWF-(1,2,3)
 Backtracking                       9                     0          0  2.76540584E-03  2.76540584E-03                       *                                   
 Model                              9          1                                                       -4.92769445E-07       *                      1_GWF-(1,2,3)
 ----------------------------------------------------------------------------------------------------------------------------------------------------------------


 9 CALLS TO NUMERICAL SOLUTION IN TIME STEP 2 STRESS PERIOD 3
 50 TOTAL ITERATIONS
 
    Solving:  Stress period:     3    Time step:     3
 

 SLN_1 OUTER ITERATION SUMMARY
 ----------------------------------------------------------------------------------------------------------------------------------------------------------------
                                OUTER      INNER  BACKTRACK  BACKTRACK        INCOMING        OUTGOING                    STEP   MAXIMUM CHANGE MODEL-(CELLID) OR
 OUTER ITERATION STEP       ITERATION  ITERATION       FLAG ITERATIONS        RESIDUAL        RESIDUAL  MAXIMUM CHANGE SUCCESS             MODEL-PACKAGE-(NUMBER)
 ----------------------------------------------------------------------------------------------------------------------------------------------------------------
 Backtracking                       1                     0          0       183.41127       183.41127                       *                                   
 Model                              1         12                                                            0.65158095                              1_GWF-(1,3,3)
 Backtracking                       2                     0          0       47.655665       47.655665                       *                                   
 Model                              2          9                                                       -6.89705069E-02                              1_GWF-(1,1,1)
 Backtracking                       3                     0          0       8.2916943       8.2916943                       *                                   
 Model                              3          6                                                       -1.40812752E-02                              1_GWF-(3,1,1)
 Backtracking                       4                     0          0       1.6577240       1.6577240                       *                                   
 Model                              4          5                                                       -2.82530645E-03                              1_GWF-(1,1,1)
 Backtracking                       5                     0          0      0.33132032      0.33132032                       *                                   
 Model                              5          4                                                       -5.64916298E-04                              1_GWF-(4,1,1)
 Backtracking                       6                     0          0  6.63062824E-02  6.63062824E-02                       *                                   
 Model                              6          4                                                       -1.12850851E-04                              1_GWF-(3,1,1)
 Backtracking                       7                     0          0  1.35510250E-02  1.35510250E-02                       *                                   
 Model                              7          2                                                       -2.26344100E-05                              1_GWF-(4,1,1)
 Backtracking                       8                     0          0  3.70517195E-03  3.70517195E-03                       *                                   
 Model                              8          2                                                       -4.37903437E-06                              1_GWF-(1,1,1)
 Backtracking                       9                     0          0  2.56600819E-03  2.56600819E-03                       *                                   
 Model                              9          1                                                       -8.89178196E-07       *                      1_GWF-(3,1,1)
 ----------------------------------------------------------------------------------------------------------------------------------------------------------------


 9 CALLS TO NUMERICAL SOLUTION IN TIME STEP 3 STRESS PERIOD 3
 45 TOTAL ITERATIONS
 
    Solving:  Stress period:     3    Time step:     4
 

 SLN_1 OUTER ITERATION SUMMARY
 ----------------------------------------------------------------------------------------------------------------------------------------------------------------
                                OUTER      INNER  BACKTRACK  BACKTRACK        INCOMING        OUTGOING                    STEP   MAXIMUM CHANGE MODEL-(CELLID) OR
 OUTER ITERATION STEP       ITERATION  ITERATION       FLAG ITERATIONS        RESIDUAL        RESIDUAL  MAXIMUM CHANGE SUCCESS             MODEL-PACKAGE-(NUMBER)
 ----------------------------------------------------------------------------------------------------------------------------------------------------------------
 Backtracking                       1                     0          0       174.38380       174.38380                       *                                   
 Model                              1         13                                                            0.56953412                              1_GWF-(7,5,3)
 Backtracking                       2                     0          0       55.482949       55.482949                       *                                   
 Model                              2          9                                                       -2.73308794E-02                              1_GWF-(7,5,3)
 Backtracking                       3                     0          0       10.775542       10.775542                       *                                   
 Model                              3          5                                                       -5.49487388E-03                              1_GWF-(1,3,5)
 Backtracking                       4                     0          0       2.1539659       2.1539659                       *                                   
 Model                              4          5                                                       -1.09941026E-03                              1_GWF-(1,5,3)
 Backtracking                       5                     0          0      0.43044388      0.43044388                       *                                   
 Model                              5          4                                                       -2.19728500E-04                              1_GWF-(1,5,3)
 Backtracking                       6                     0          0  8.60687382E-02  8.60687382E-02                       *                                   
 Model                              6          2                                                       -4.36245839E-05                              1_GWF-(1,5,3)
 Backtracking                       7                     0          0  1.74259485E-02  1.74259485E-02                       *                                   
 Model                              7          2                                                       -8.90096457E-06                              1_GWF-(6,3,5)
 Backtracking                       8                     0          0  4.26562328E-03  4.26562328E-03                       *                                   
 Model                              8          2                                                       -1.82303496E-06                              1_GWF-(1,3,5)
 Backtracking                       9                     0          0  2.57999473E-03  2.57999473E-03                       *                                   
 Model                              9          1                                                       -3.42422567E-07       *                      1_GWF-(7,3,5)
 ----------------------------------------------------------------------------------------------------------------------------------------------------------------


 9 CALLS TO NUMERICAL SOLUTION IN TIME STEP 4 STRESS PERIOD 3
 43 TOTAL ITERATIONS
 
    Solving:  Stress period:     3    Time step:     5
 

 SLN_1 OUTER ITERATION SUMMARY
 ----------------------------------------------------------------------------------------------------------------------------------------------------------------
                                OUTER      INNER  BACKTRACK  BACKTRACK        INCOMING        OUTGOING                    STEP   MAXIMUM CHANGE MODEL-(CELLID) OR
 OUTER ITERATION STEP       ITERATION  ITERATION       FLAG ITERATIONS        RESIDUAL        RESIDUAL  MAXIMUM CHANGE SUCCESS             MODEL-PACKAGE-(NUMBER)
 ----------------------------------------------------------------------------------------------------------------------------------------------------------------
 Backtracking                       1                     0          0       166.03636       166.03636                       *                                   
 Model                              1         13                                                            0.51023929                              1_GWF-(1,5,4)
 Backtracking                       2                     0          0       47.640869       47.640869                       *                                   
 Model                              2          8                                                        2.30328760E-02                              1_GWF-(5,1,1)
 Backtracking                       3                     0          0       9.0568970       9.0568970                       *                                   
 Model                              3          6                                                       -3.91520361E-03                              1_GWF-(1,6,1)
 Backtracking                       4                     0          0       1.8105473       1.8105473                       *                                   
 Model                              4          5                                                       -7.83428461E-04                              1_GWF-(1,1,6)
 Backtracking                       5                     0          0      0.36185726      0.36185726                       *                                   
[...]
 Backtracking                      21                     1          1       55.126713       19.356417                                                           
 Model                             21         35                                                            0.98185830                              1_GWF-(1,8,9)
 Backtracking                      22                     1          1       48.158562       17.412647                                                           
 Model                             22         34                                                            0.88069442                             1_GWF-(5,10,7)
 Backtracking                      23                     1          1       42.479714       15.750857                                                           
 Model                             23         33                                                            0.79040915                             1_GWF-(1,7,10)
 Backtracking                      24                     1          1       35.797423       14.161394                                                           
 Model                             24         36                                                            0.70906350                              1_GWF-(6,9,9)
 Backtracking                      25                     1          1       31.140401       12.755078                                                           
 Model                             25         34                                                            0.63689776                              1_GWF-(6,9,9)
 Backtracking                      26                     1          1       29.381904       11.469926                                                           
 Model                             26         30                                                            0.57219307                              1_GWF-(6,9,9)
 Backtracking                      27                     1          1       24.035366       10.282059                                                           
 Model                             27         35                                                            0.51414653                              1_GWF-(6,9,9)
 Backtracking                      28                     1          1       19.130212       9.2526939                                                           
 Model                             28         35                                                            0.46281272                             1_GWF-(1,11,7)
 Backtracking                      29                     1          1       18.333455       8.3322332                                                           
 Model                             29         35                                                            0.41538061                              1_GWF-(1,9,9)
 Backtracking                      30                     1          1       17.165816       7.5000237                                                           
 Model                             30         34                                                            0.37336519                              1_GWF-(6,9,9)
 Backtracking                      31                     1          1       15.843500       6.8005336                                                           
 Model                             31         30                                                            0.33573858                              1_GWF-(6,9,9)
 Backtracking                      32                     1          1       14.947180       6.1274555                                                           
 Model                             32         34                                                            0.30177444                             1_GWF-(4,10,8)
 Backtracking                      33                     1          1       13.485931       5.5146550                                                           
 Model                             33         36                                                            0.27137090                             1_GWF-(4,10,8)
 Backtracking                      34                     1          1       13.243641       4.9627207                                                           
 Model                             34         35                                                            0.24364680                             1_GWF-(1,11,7)
 Backtracking                      35                     1          1       12.729536       4.4819116                                                           
 Model                             35         29                                                            0.21912750                             1_GWF-(1,11,7)
 Backtracking                      36                     1          1       5.1654644       4.0323842                                                           
 Model                             36         36                                                            0.19709222                             1_GWF-(1,11,7)
 Backtracking                      37                     1          1       4.6171509       3.6281508                                                           
 Model                             37         35                                                            0.17852307                              1_GWF-(4,6,6)
 Backtracking                      38                     0          0       3.4847527       3.4847527                       *                                   
 Model                             38         36                                                        3.81606807E-03                              1_GWF-(6,6,5)
 Backtracking                      39                     0          0      0.51533893      0.51533893                       *                                   
 Model                             39          6                                                       -5.64202221E-04                              1_GWF-(6,6,6)
 Backtracking                      40                     0          0      0.10641034      0.10641034                       *                                   
 Model                             40          6                                                       -1.09815037E-04                              1_GWF-(6,6,6)
 Backtracking                      41                     0          0  2.45353593E-02  2.45353593E-02                       *                                   
 Model                             41          2                                                       -2.09811426E-05                              1_GWF-(6,6,6)
 Backtracking                      42                     0          0  6.86597665E-03  6.86597665E-03                       *                                   
 Model                             42          8                                                       -2.92088872E-05                           1_GWF-(10,12,13)
 Backtracking                      43                     1          1  3.93241529E-02  5.87341822E-03                                                           
 Model                             43         15                                                       -6.18963450E-05                             1_GWF-(6,8,11)
 Backtracking                      44                     4          1      0.10590681  1.29425978E-02                                                           
 Model                             44          7                                                       -3.21971800E-05                           1_GWF-(10,12,13)
 Backtracking                      45                     4          1  5.19163762E-02  1.64996343E-02                                                           
 Model                             45          2                                                       -4.97762584E-06                             1_GWF-(6,8,11)
 Backtracking                      46                     0          0  9.30627660E-03  9.30627660E-03                       *                                   
 Model                             46          3                                                       -5.98618902E-06                             1_GWF-(6,8,11)
 Backtracking                      47                     0          0  9.04106587E-03  9.04106587E-03                       *                                   
 Model                             47          2                                                       -3.54301881E-06                             1_GWF-(1,8,11)
 Backtracking                      48                     0          0  5.60971171E-03  5.60971171E-03                       *                                   
 Model                             48          8                                                       -3.15481103E-05                             1_GWF-(1,8,11)
 Backtracking                      49                     4          1  4.86471981E-02  9.02260642E-03                                                           
 Model                             49          2                                                       -3.43911508E-06                             1_GWF-(6,8,11)
 Backtracking                      50                     0          0  5.49909390E-03  5.49909390E-03                       *                                   
 Model                             50         15                                                       -5.33359469E-05                             1_GWF-(5,8,11)
 Backtracking                      51                     4          1  7.12413741E-02  1.06708151E-02                                                           
 Model                             51          4                                                       -5.54714773E-06                             1_GWF-(1,8,11)
 Backtracking                      52                     0          0  8.30935293E-03  8.30935293E-03                       *                                   
 Model                             52         11                                                       -3.71163739E-05                             1_GWF-(1,8,11)
 Backtracking                      53                     4          1  5.04384561E-02  1.22608178E-02                                                           
 Model                             53          4                                                       -5.29058977E-06                             1_GWF-(5,8,11)
 Backtracking                      54                     0          0  9.00379788E-03  9.00379788E-03                       *                                   
 Model                             54          8                                                       -1.54453621E-05                              1_GWF-(6,1,9)
 Backtracking                      55                     4          0  2.15008624E-02  2.15008624E-02                       *                                   
 Model                             55          4                                                       -5.87422588E-06                              1_GWF-(1,1,9)
 Backtracking                      56                     0          0  1.34673418E-02  1.34673418E-02                       *                                   
 Model                             56          4                                                       -5.69496447E-06                              1_GWF-(1,1,9)
 Backtracking                      57                     0          0  9.78527976E-03  9.78527976E-03                       *                                   
 Model                             57          8                                                       -1.20212655E-05                              1_GWF-(5,8,3)
 Backtracking                      58                     4          0  1.16477996E-02  1.16477996E-02                       *                                   
 Model                             58          4                                                       -5.44645434E-06                              1_GWF-(1,1,9)
 Backtracking                      59                     0          0  8.76708184E-03  8.76708184E-03                       *                                   
 Model                             59          4                                                       -5.31306081E-06                              1_GWF-(6,1,9)
 Backtracking                      60                     0          0  7.15286659E-03  7.15286659E-03                       *                                   
 Model                             60         11                                                       -2.39561736E-05                              1_GWF-(1,8,3)
 Backtracking                      61                     4          1  1.67411600E-02  8.03830803E-03                                                           
 Model                             61          4                                                       -4.99985166E-06                              1_GWF-(1,1,9)
 Backtracking                      62                     0          0  6.63918119E-03  6.63918119E-03                       *                                   
 Model                             62         11                                                       -2.22765676E-05                              1_GWF-(1,8,3)
 Backtracking                      63                     4          0  1.59270431E-02  1.59270431E-02                       *                                   
 Model                             63          3                                                       -6.05286768E-06                              1_GWF-(1,1,9)
 Backtracking                      64                     0          0  1.14981215E-02  1.14981215E-02                       *                                   
 Model                             64          3                                                       -5.18274118E-06                              1_GWF-(1,1,9)
 Backtracking                      65                     0          0  8.63946733E-03  8.63946733E-03                       *                                   
 Model                             65          3                                                       -4.53022104E-06                              1_GWF-(1,1,9)
 Backtracking                      66                     0          0  6.77842332E-03  6.77842332E-03                       *                                   
 Model                             66          3                                                       -4.13564946E-06                             1_GWF-(13,9,1)
 Backtracking                      67                     0          0  5.54847813E-03  5.54847813E-03                       *                                   
 Model                             67         18                                                       -2.43643485E-05                              1_GWF-(5,8,3)
 Backtracking                      68                     4          1  1.20757067E-02  6.04287898E-03                                                           
 Model                             68         14                                                       -1.68716740E-05                              1_GWF-(5,8,3)
 Backtracking                      69                     4          0  9.68930762E-03  9.68930762E-03                       *                                   
 Model                             69          4                                                       -4.94038660E-06                             1_GWF-(14,9,1)
 Backtracking                      70                     0          0  7.76895822E-03  7.76895822E-03                       *                                   
 Model                             70          4                                                       -4.44229315E-06                              1_GWF-(5,8,3)
 Backtracking                      71                     0          0  6.45110691E-03  6.45110691E-03                       *                                   
 Model                             71          4                                                       -4.05874882E-06                              1_GWF-(5,8,3)
 Backtracking                      72                     0          0  5.53465058E-03  5.53465058E-03                       *                                   
 Model                             72          4                                                       -3.69653804E-06                              1_GWF-(1,8,3)
 Backtracking                      73                     0          0  4.88051479E-03  4.88051479E-03                       *                                   
 Model                             73          4                                                       -3.34803056E-06                              1_GWF-(5,8,2)
 Backtracking                      74                     0          0  4.39595648E-03  4.39595648E-03                       *                                   
 Model                             74          4                                                       -3.02305157E-06                              1_GWF-(5,8,2)
 Backtracking                      75                     0          0  4.02504808E-03  4.02504808E-03                       *                                   
 Model                             75          4                                                       -2.79433797E-06                            1_GWF-(1,19,33)
 Backtracking                      76                     0          0  3.73231443E-03  3.73231443E-03                       *                                   
 Model                             76          4                                                       -2.69833487E-06                            1_GWF-(9,19,33)
 Backtracking                      77                     0          0  3.49504022E-03  3.49504022E-03                       *                                   
 Model                             77          4                                                       -2.60670696E-06                            1_GWF-(9,21,32)
 Backtracking                      78                     0          0  3.29833006E-03  3.29833006E-03                       *                                   
 Model                             78          4                                                       -2.52373473E-06                            1_GWF-(1,24,30)
 Backtracking                      79                     0          0  3.13206553E-03  3.13206553E-03                       *                                   
 Model                             79          1                                                       -9.28472232E-07       *                     1_GWF-(12,7,4)
 ----------------------------------------------------------------------------------------------------------------------------------------------------------------


 79 CALLS TO NUMERICAL SOLUTION IN TIME STEP 1 STRESS PERIOD 4
 1594 TOTAL ITERATIONS

 MEMORY MANAGER TOTAL STORAGE BY DATA TYPE, IN MEGABYTES
 -------------------------------
                    ALLOCATED   
 DATA TYPE           MEMORY     
 -------------------------------
 Character        9.17200000E-03
 Logical          4.80000000E-05
 Integer          6.7041440     
 Real             14.370168     
 -------------------------------
 Total            21.083532     
 Virtual          0.0000000     
 -------------------------------


 
 Run end date and time (yyyy/mm/dd hh:mm:ss): 2025/04/30  7:00:31
 Elapsed run time:  9.013 Seconds
 Normal termination of simulation.
