                                   MODFLOW 6
                U.S. GEOLOGICAL SURVEY MODULAR HYDROLOGIC MODEL
                          GROUNDWATER FLOW MODEL (GWF)
                            VERSION 6.6.1 02/10/2025

   MODFLOW 6 compiled Feb 14 2025 13:40:10 with Intel(R) Fortran Intel(R) 64
   Compiler Classic for applications running on Intel(R) 64, Version 2021.7.0
                             Build 20220726_000000

This software has been approved for release by the U.S. Geological 
Survey (USGS). Although the software has been subjected to rigorous 
review, the USGS reserves the right to update the software as needed 
pursuant to further analysis and review. No warranty, expressed or 
implied, is made by the USGS or the U.S. Government as to the 
functionality of the software and related material nor shall the 
fact of release constitute any such warranty. Furthermore, the 
software is released on condition that neither the USGS nor the U.S. 
Government shall be held liable for any damages resulting from its 
authorized or unauthorized use. Also refer to the USGS Water 
Resources Software User Rights Notice for complete use, copyright, 
and distribution information.


As a work of the United States Government, this USGS product is 
in the public domain within the United States. You can copy, 
modify, distribute, and perform the work, even for commercial 
purposes, all without asking permission. Additionally, USGS 
waives copyright and related rights in the work worldwide 
through CC0 1.0 Universal Public Domain Dedication 
(https://creativecommons.org/publicdomain/zero/1.0/).

The following GNU Lesser General Public License (LGPL) libraries
are used in this USGS product:

    SPARSKIT version 2.0
      ilut, luson, and qsplit 
      (https://www-users.cse.umn.edu/~saad/software/SPARSKIT/)

    RCM - Reverse Cuthill McKee Ordering
      (https://people.math.sc.edu/Burkardt/f_src/rcm/rcm.html)

    BLAS - Basic Linear Algebra Subprograms Level 1
      (https://people.math.sc.edu/Burkardt/f_src/blas1_d/blas1_d.html)

    SPARSEKIT - Sparse Matrix Utility Package
      amux, dperm, dvperm, rperm, and cperm
      (https://people.sc.fsu.edu/~jburkardt/f77_src/sparsekit/sparsekit.html)

The following BSD-3 License libraries are used in this USGS product:

    Modern Fortran DAG Library
      Copyright (c) 2018, Jacob Williams
      All rights reserved.
      (https://github.com/jacobwilliams/daglib)

MODFLOW 6 compiler options: /O2 /heap-arrays:0 /fpe:0 /traceback /nologo /fpp
/c /module:win64\mod_mf6\ /object:win64\obj_mf6\

System command used to initiate simulation:
C:\Users\gross.DESKTOP-AIRQM2M\anaconda3\Scripts\mf6.exe

MODFLOW was compiled using uniform precision.

Real Variables
  KIND: 8
  TINY (smallest non-zero value):    2.225074-308
  HUGE (largest value):    1.797693+308
  PRECISION: 15
  SIZE IN BITS: 64

Integer Variables
  KIND: 4
  HUGE (largest value): 2147483647
  SIZE IN BITS: 32

Long Integer Variables
  KIND: 8
  HUGE (largest value): 9223372036854775807
  SIZE IN BITS: 64

Logical Variables
  KIND: 4
  SIZE IN BITS: 32
 
 NAMEFILE OPTIONS:
    FLOWS WILL BE SAVED TO BUDGET FILE SPECIFIED IN OUTPUT CONTROL
 END NAMEFILE OPTIONS:

 DIS -- STRUCTURED GRID DISCRETIZATION PACKAGE, VERSION 2 : 3/27/2014 - INPUT READ FROM MEMPATH: __INPUT__/GWF-INNER/DIS                           


 NPF -- NODE PROPERTY FLOW PACKAGE, VERSION 1, 3/30/2015 INPUT READ FROM MEMPATH: __INPUT__/GWF-INNER/NPF                           


 IC -- Initial Conditions Package, Version 8, 3/28/2015 input read from mempath: __INPUT__/GWF-INNER/IC                            


 Setting Discretization Options
    Model length unit [0=UND, 1=FEET, 2=METERS, 3=CENTIMETERS] set as 1
    XORIGIN = 5100.000000000000
    YORIGIN = 9100.000000000000
 End Setting Discretization Options

 Setting Discretization Dimensions
    NLAY = 4
    NROW = 45
    NCOL = 28
 End Setting Discretization Dimensions

 Setting Discretization Griddata
    DELR set from input file
    DELC set from input file
    TOP set from input file
    BOTM set from input file
    IDOMAIN set from input file
 End Setting Discretization Griddata

 Setting NPF Options
    Specific discharge will be calculated at cell centers and written to DATA-SPDIS in budget file when requested.
    Values specified for K33 are anisotropy ratios and will be multiplied by K before being used in calculations.
 End Setting NPF Options

 Setting NPF Griddata
    ICELLTYPE set from input file
    K set from input file
    K33 set from input file
    K22 not provided.  Setting K22 = K.
 End Setting NPF Griddata


 WEL   -- WEL PACKAGE, VERSION 8, 2/22/2014 INPUT READ FROM MEMPATH: __INPUT__/GWF-INNER/WEL-1                         

 PROCESSING WEL BASE OPTIONS
    LISTS OF WEL CELLS WILL BE PRINTED.
    WEL FLOWS WILL BE PRINTED TO LISTING FILE.
 END OF WEL BASE OPTIONS

 PROCESSING WEL OPTIONS
 END OF WEL OPTIONS

 PROCESSING WEL BASE DIMENSIONS
    MAXBOUND =       8
 END OF WEL BASE DIMENSIONS

 RCH   -- RCH PACKAGE, VERSION 8, 2/22/2014 INPUT READ FROM MEMPATH: __INPUT__/GWF-INNER/RCH-1                         

 PROCESSING RCH BASE OPTIONS
    RCH FLOWS WILL BE PRINTED TO LISTING FILE.
 END OF RCH BASE OPTIONS

 PROCESSING RCHA OPTIONS
    RECHARGE INPUT WILL BE READ AS ARRAY(S).
 END OF RCHA OPTIONS
    STRT set from input file

 STO -- STORAGE PACKAGE, VERSION 1, 5/19/2014 INPUT READ FROM MEMPATH: __INPUT__/GWF-INNER/STO                           


 PROCESSING STORAGE OPTIONS
 END OF STORAGE OPTIONS
    BINARY GRID INFORMATION WILL BE WRITTEN TO:
      UNIT NUMBER: 1050
      FILE NAME: gwf-inner.dis.grb

 OPENED gwf-inner.dis.grb
 FILE TYPE:DATA(BINARY)   UNIT 1050   STATUS:REPLACE             
 FORMAT:UNFORMATTED            ACCESS:STREAM              
 ACTION:READWRITE           

      THE LAST TIME STEP WILL BE PRINTED
      THE LAST TIME STEP WILL BE PRINTED
 # File generated by Flopy version 3.9.1 on 03/13/2025 at 09:55:31.

 PROCESSING OC OPTIONS

    BUDGET INFORMATION WILL BE WRITTEN TO:
      UNIT NUMBER: 1051
      FILE NAME: gwf-inner.bud

 OPENED gwf-inner.bud
 FILE TYPE:DATA(BINARY)   UNIT 1051   STATUS:REPLACE             
 FORMAT:UNFORMATTED            ACCESS:STREAM              
 ACTION:READWRITE           

    HEAD INFORMATION WILL BE WRITTEN TO:
      UNIT NUMBER: 1052
      FILE NAME: gwf-inner.hds

 OPENED gwf-inner.hds
 FILE TYPE:DATA(BINARY)   UNIT 1052   STATUS:REPLACE             
 FORMAT:UNFORMATTED            ACCESS:STREAM              
 ACTION:READWRITE           

 END OF OC OPTIONS

start timestep kper="1" kstp="1" mode="normal"


 BEGIN READING OUTPUT CONTROL FOR STRESS PERIOD 1
      THE LAST TIME STEP WILL BE SAVED
      THE FOLLOWING STEPS WILL BE SAVED: 1 250 375 500 
      THE LAST TIME STEP WILL BE SAVED
      THE LAST TIME STEP WILL BE SAVED
      THE LAST TIME STEP WILL BE PRINTED
      THE FIRST TIME STEP WILL BE PRINTED
      THE FIRST TIME STEP WILL BE PRINTED
      THE LAST TIME STEP WILL BE PRINTED

 END READING OUTPUT CONTROL FOR STRESS PERIOD 1
 ---------------------------------------------------
  WEL NO.    LAYER    ROW     COL    CONCENTRATION  
 ---------------------------------------------------
     1         3       3      23     0.00000000     
     2         3      11      20     0.00000000     
     3         3      18      17     0.00000000     
     4         3      25      14     0.00000000     
     5         3      32      11     0.00000000     
     6         3      40       8     0.00000000     
     7         3      40       3     0.00000000     
     8         3      44      11     0.00000000     
 ---------------------------------------------------



 WEL PACKAGE (WEL-1) FLOW RATES   PERIOD      1   STEP        1
 -----------------------------------------------
   NUMBER   CELLID                    RATE      
 -----------------------------------------------
     1      (3,3,23)             -19230.000     
     2      (3,11,20)            -19230.000     
     3      (3,18,17)            -19230.000     
     4      (3,25,14)            -19230.000     
     5      (3,32,11)            -19230.000     
     6      (3,40,8)             -19230.000     
     7      (3,40,3)             -15384.000     
     8      (3,44,11)            -17307.000     
 -----------------------------------------------




 RCHA PACKAGE (RCH-1) FLOW RATES   PERIOD      1   STEP        1
 -----------------------------------------------
   NUMBER   CELLID                    RATE      
 -----------------------------------------------
     1      (1,1,1)               2.8538750     
     2      (1,1,2)               2.8538750     
     3      (1,1,3)               2.8538750     
     4      (1,1,4)               2.8538750     
     5      (1,1,5)               2.8538750     
     6      (1,1,6)               2.8538750     
     7      (1,1,7)               2.8538750     
     8      (1,1,8)               2.8538750     
     9      (1,1,9)               2.8538750     
     10     (1,1,10)              2.8538750     
     11     (1,1,11)              2.8538750     
     12     (1,1,12)              2.8538750     
     13     (1,1,13)              2.8538750     
     14     (1,1,14)              2.8538750     
     15     (1,1,15)              2.8538750     
     16     (1,1,16)              2.8538750     
     17     (1,1,17)              2.8538750     
     18     (1,1,18)              2.8538750     
     19     (1,1,19)              2.8538750     
     20     (1,1,20)              2.8538750     
     21     (1,1,21)              2.8538750     
     22     (1,1,22)              2.8538750     
     23     (1,1,23)              2.8538750     
     24     (1,1,24)              2.8538750     
     25     (1,1,25)              2.8538750     
     26     (1,1,26)              2.8538750     
     27     (1,1,27)              2.8538750     
     28     (1,1,28)              2.8538750     
     29     (1,2,1)               2.8538750     
     30     (1,2,2)               2.8538750     
     31     (1,2,3)               2.8538750     
     32     (1,2,4)               2.8538750     
     33     (1,2,5)               2.8538750     
     34     (1,2,6)               2.8538750     
     35     (1,2,7)               2.8538750     
     36     (1,2,8)               2.8538750     
     37     (1,2,9)               2.8538750     
     38     (1,2,10)              2.8538750     
     39     (1,2,11)              2.8538750     
     40     (1,2,12)              2.8538750     
     41     (1,2,13)              2.8538750     
     42     (1,2,14)              2.8538750     
     43     (1,2,15)              2.8538750     
     44     (1,2,16)              2.8538750     
     45     (1,2,17)              2.8538750     
     46     (1,2,18)              2.8538750     
     47     (1,2,19)              2.8538750     
     48     (1,2,20)              2.8538750     
     49     (1,2,21)              2.8538750     
     50     (1,2,22)              2.8538750     
     51     (1,2,23)              2.8538750     
     52     (1,2,24)              2.8538750     
     53     (1,2,25)              2.8538750     
     54     (1,2,26)              2.8538750     
     55     (1,2,27)              2.8538750     
     56     (1,2,28)              2.8538750     
     57     (1,3,1)               2.8538750     
     58     (1,3,2)               2.8538750     
     59     (1,3,3)               2.8538750     
     60     (1,3,4)               2.8538750     
     61     (1,3,5)               2.8538750     
     62     (1,3,6)               2.8538750     
     63     (1,3,7)               2.8538750     
     64     (1,3,8)               2.8538750     
     65     (1,3,9)               2.8538750     
     66     (1,3,10)              2.8538750     
     67     (1,3,11)              2.8538750     
     68     (1,3,12)              2.8538750     
     69     (1,3,13)              2.8538750     
     70     (1,3,14)              2.8538750     
     71     (1,3,15)              2.8538750     
     72     (1,3,16)              2.8538750     
     73     (1,3,17)              2.8538750     
     74     (1,3,18)              2.8538750     
     75     (1,3,19)              2.8538750     
     76     (1,3,20)              2.8538750     
     77     (1,3,21)              2.8538750     
     78     (1,3,22)              2.8538750     
     79     (1,3,23)              2.8538750     
     80     (1,3,24)              2.8538750     
     81     (1,3,25)              2.8538750     
     82     (1,3,26)              2.8538750     
     83     (1,3,27)              2.8538750     
     84     (1,3,28)              2.8538750     
     85     (1,4,1)               2.8538750     
     86     (1,4,2)               2.8538750     
     87     (1,4,3)               2.8538750     
     88     (1,4,4)               2.8538750     
     89     (1,4,5)               2.8538750     
     90     (1,4,6)               2.8538750     
     91     (1,4,7)               2.8538750     
     92     (1,4,8)               2.8538750     
     93     (1,4,9)               2.8538750     
     94     (1,4,10)              2.8538750     
     95     (1,4,11)              2.8538750     
     96     (1,4,12)              2.8538750     
     97     (1,4,13)              2.8538750     
     98     (1,4,14)              2.8538750     
     99     (1,4,15)              2.8538750     
    100     (1,4,16)              2.8538750     
    101     (1,4,17)              2.8538750     
    102     (1,4,18)              2.8538750     
    103     (1,4,19)              2.8538750     
    104     (1,4,20)              2.8538750     
    105     (1,4,21)              2.8538750     
    106     (1,4,22)              2.8538750     
    107     (1,4,23)              2.8538750     
    108     (1,4,24)              2.8538750     
    109     (1,4,25)              2.8538750     
    110     (1,4,26)              2.8538750     
    111     (1,4,27)              2.8538750     
    112     (1,4,28)              2.8538750     
    113     (1,5,1)               2.8538750     
    114     (1,5,2)               2.8538750     
    115     (1,5,3)               2.8538750     
    116     (1,5,4)               2.8538750     
    117     (1,5,5)               2.8538750     
    118     (1,5,6)               2.8538750     
    119     (1,5,7)               2.8538750     
    120     (1,5,8)               2.8538750     
    121     (1,5,9)               2.8538750     
    122     (1,5,10)              2.8538750     
    123     (1,5,11)              2.8538750     
    124     (1,5,12)              2.8538750     
    125     (1,5,13)              2.8538750     
    126     (1,5,14)              2.8538750     
    127     (1,5,15)              2.8538750     
    128     (1,5,16)              2.8538750     
    129     (1,5,17)              2.8538750     
    130     (1,5,18)              2.8538750     
    131     (1,5,19)              2.8538750     
    132     (1,5,20)              2.8538750     
    133     (1,5,21)              2.8538750     
    134     (1,5,22)              2.8538750     
    135     (1,5,23)              2.8538750     
    136     (1,5,24)              2.8538750     
    137     (1,5,25)              2.8538750     
    138     (1,5,26)              2.8538750     
    139     (1,5,27)              2.8538750     
    140     (1,5,28)              2.8538750     
    141     (1,6,1)               2.8538750     
    142     (1,6,2)               2.8538750     
    143     (1,6,3)               2.8538750     
    144     (1,6,4)               2.8538750     
    145     (1,6,5)               2.8538750     
    146     (1,6,6)               2.8538750     
    147     (1,6,7)               2.8538750     
    148     (1,6,8)               2.8538750     
    149     (1,6,9)               2.8538750     
    150     (1,6,10)              2.8538750     
    151     (1,6,11)              2.8538750     
    152     (1,6,12)              2.8538750     
    153     (1,6,13)              2.8538750     
    154     (1,6,14)              2.8538750     
    155     (1,6,15)              2.8538750     
    156     (1,6,16)              2.8538750     
    157     (1,6,17)              2.8538750     
    158     (1,6,18)              2.8538750     
    159     (1,6,19)              2.8538750     
    160     (1,6,20)              2.8538750     
    161     (1,6,21)              2.8538750     
    162     (1,6,22)              2.8538750     
    163     (1,6,23)              2.8538750     
    164     (1,6,24)              2.8538750     
    165     (1,6,25)              2.8538750     
    166     (1,6,26)              2.8538750     
    167     (1,6,27)              2.8538750     
    168     (1,6,28)              2.8538750     
    169     (1,7,1)               2.8538750     
    170     (1,7,2)               2.8538750     
    171     (1,7,3)               2.8538750     
    172     (1,7,4)               2.8538750     
    173     (1,7,5)               2.8538750     
    174     (1,7,6)               2.8538750     
    175     (1,7,7)               2.8538750     
    176     (1,7,8)               2.8538750     
    177     (1,7,9)               2.8538750     
    178     (1,7,10)              2.8538750     
    179     (1,7,11)              2.8538750     
    180     (1,7,12)              2.8538750     
    181     (1,7,13)              2.8538750     
    182     (1,7,14)              2.8538750     
    183     (1,7,15)              2.8538750     
    184     (1,7,16)              2.8538750     
    185     (1,7,17)              2.8538750     
    186     (1,7,18)              2.8538750     
    187     (1,7,19)              2.8538750     
    188     (1,7,20)              2.8538750     
    189     (1,7,21)              2.8538750     
    190     (1,7,22)              2.8538750     
    191     (1,7,23)              2.8538750     
    192     (1,7,24)              2.8538750     
    193     (1,7,25)              2.8538750     
    194     (1,7,26)              2.8538750     
    195     (1,7,27)              2.8538750     
    196     (1,7,28)              2.8538750     
    197     (1,8,1)               2.8538750     
    198     (1,8,2)               2.8538750     
    199     (1,8,3)               2.8538750     
    200     (1,8,4)               2.8538750     
    201     (1,8,5)               2.8538750     
    202     (1,8,6)               2.8538750     
    203     (1,8,7)               2.8538750     
    204     (1,8,8)               2.8538750     
    205     (1,8,9)               2.8538750     
    206     (1,8,10)              2.8538750     
    207     (1,8,11)              2.8538750     
    208     (1,8,12)              2.8538750     
    209     (1,8,13)              2.8538750     
    210     (1,8,14)              2.8538750     
    211     (1,8,15)              2.8538750     
    212     (1,8,16)              2.8538750     
    213     (1,8,17)              2.8538750     
    214     (1,8,18)              2.8538750     
    215     (1,8,19)              2.8538750     
    216     (1,8,20)              2.8538750     
    217     (1,8,21)              2.8538750     
    218     (1,8,22)              2.8538750     
    219     (1,8,23)              2.8538750     
    220     (1,8,24)              2.8538750     
    221     (1,8,25)              2.8538750     
    222     (1,8,26)              2.8538750     
    223     (1,8,27)              2.8538750     
    224     (1,8,28)              2.8538750     
    225     (1,9,1)               2.8538750     
    226     (1,9,2)               2.8538750     
    227     (1,9,3)               2.8538750     
    228     (1,9,4)               2.8538750     
    229     (1,9,5)               2.8538750     
    230     (1,9,6)               2.8538750     
    231     (1,9,7)               2.8538750     
    232     (1,9,8)               2.8538750     
    233     (1,9,9)               2.8538750     
    234     (1,9,10)              2.8538750     
    235     (1,9,11)              2.8538750     
    236     (1,9,12)              2.8538750     
    237     (1,9,13)              2.8538750     
    238     (1,9,14)              2.8538750     
    239     (1,9,15)              2.8538750     
    240     (1,9,16)              2.8538750     
    241     (1,9,17)              2.8538750     
    242     (1,9,18)              2.8538750     
    243     (1,9,19)              2.8538750     
    244     (1,9,20)              2.8538750     
    245     (1,9,21)              2.8538750     
    246     (1,9,22)              2.8538750     
    247     (1,9,23)              2.8538750     
    248     (1,9,24)              2.8538750     
    249     (1,9,25)              2.8538750     
    250     (1,9,26)              2.8538750     
    251     (1,9,27)              2.8538750     
    252     (1,9,28)              2.8538750     
    253     (1,10,1)              2.8538750     
    254     (1,10,2)              2.8538750     
    255     (1,10,3)              2.8538750     
    256     (1,10,4)              2.8538750     
    257     (1,10,5)              2.8538750     
    258     (1,10,6)              2.8538750     
    259     (1,10,7)              2.8538750     
    260     (1,10,8)              2.8538750     
    261     (1,10,9)              2.8538750     
    262     (1,10,10)             2.8538750     
    263     (1,10,11)             2.8538750     
    264     (1,10,12)             2.8538750     
    265     (1,10,13)             2.8538750     
    266     (1,10,14)             2.8538750     
    267     (1,10,15)             2.8538750     
    268     (1,10,16)             2.8538750     
    269     (1,10,17)             2.8538750     
    270     (1,10,18)             2.8538750     
    271     (1,10,19)             2.8538750     
    272     (1,10,20)             2.8538750     
    273     (1,10,21)             2.8538750     
    274     (1,10,22)             2.8538750     
    275     (1,10,23)             2.8538750     
    276     (1,10,24)             2.8538750     
    277     (1,10,25)             2.8538750     
    278     (1,10,26)             2.8538750     
    279     (1,10,27)             2.8538750     
    280     (1,10,28)             2.8538750     
    281     (1,11,1)              2.8538750     
    282     (1,11,2)              2.8538750     
    283     (1,11,3)              2.8538750     
    284     (1,11,4)              2.8538750     
    285     (1,11,5)              2.8538750     
    286     (1,11,6)              2.8538750     
    287     (1,11,7)              2.8538750     
    288     (1,11,8)              2.8538750     
    289     (1,11,9)              2.8538750     
    290     (1,11,10)             2.8538750     
    291     (1,11,11)             2.8538750     
    292     (1,11,12)             2.8538750     
    293     (1,11,13)             2.8538750     
    294     (1,11,14)             2.8538750     
    295     (1,11,15)             2.8538750     
    296     (1,11,16)             2.8538750     
    297     (1,11,17)             2.8538750     
    298     (1,11,18)             2.8538750     
    299     (1,11,19)             2.8538750     
    300     (1,11,20)             2.8538750     
    301     (1,11,21)             2.8538750     
    302     (1,11,22)             2.8538750     
    303     (1,11,23)             2.8538750     
    304     (1,11,24)             2.8538750     
    305     (1,11,25)             2.8538750     
    306     (1,11,26)             2.8538750     
    307     (1,11,27)             2.8538750     
    308     (1,11,28)             2.8538750     
    309     (1,12,1)              2.8538750     
    310     (1,12,2)              2.8538750     
    311     (1,12,3)              2.8538750     
    312     (1,12,4)              2.8538750     
    313     (1,12,5)              2.8538750     
    314     (1,12,6)              2.8538750     
    315     (1,12,7)              2.8538750     
    316     (1,12,8)              2.8538750     
    317     (1,12,9)              2.8538750     
    318     (1,12,10)             2.8538750     
    319     (1,12,11)             2.8538750     
    320     (1,12,12)             2.8538750     
    321     (1,12,13)             2.8538750     
    322     (1,12,14)             2.8538750     
    323     (1,12,15)             2.8538750     
    324     (1,12,16)             2.8538750     
    325     (1,12,17)             2.8538750     
    326     (1,12,18)             2.8538750     
    327     (1,12,19)             2.8538750     
    328     (1,12,20)             2.8538750     
    329     (1,12,21)             2.8538750     
    330     (1,12,22)             2.8538750     
    331     (1,12,23)             2.8538750     
    332     (1,12,24)             2.8538750     
    333     (1,12,25)             2.8538750     
    334     (1,12,26)             2.8538750     
    335     (1,12,27)             2.8538750     
    336     (1,12,28)             2.8538750     
    337     (1,13,1)              2.8538750     
    338     (1,13,2)              2.8538750     
    339     (1,13,3)              2.8538750     
    340     (1,13,4)              2.8538750     
    341     (1,13,5)              2.8538750     
    342     (1,13,6)              2.8538750     
    343     (1,13,7)              2.8538750     
    344     (1,13,8)              2.8538750     
    345     (1,13,9)              2.8538750     
    346     (1,13,10)             2.8538750     
    347     (1,13,11)             2.8538750     
    348     (1,13,12)             2.8538750     
    349     (1,13,13)             2.8538750     
    350     (1,13,14)             2.8538750     
    351     (1,13,15)             2.8538750     
    352     (1,13,16)             2.8538750     
    353     (1,13,17)             2.8538750     
    354     (1,13,18)             2.8538750     
    355     (1,13,19)             2.8538750     
    356     (1,13,20)             2.8538750     
    357     (1,13,21)             2.8538750     
    358     (1,13,22)             2.8538750     
    359     (1,13,23)             2.8538750     
    360     (1,13,24)             2.8538750     
    361     (1,13,25)             2.8538750     
    362     (1,13,26)             2.8538750     
    363     (1,13,27)             2.8538750     
    364     (1,13,28)             2.8538750     
    365     (1,14,1)              2.8538750     
    366     (1,14,2)              2.8538750     
    367     (1,14,3)              2.8538750     
    368     (1,14,4)              2.8538750     
    369     (1,14,5)              2.8538750     
    370     (1,14,6)              2.8538750     
    371     (1,14,7)              2.8538750     
    372     (1,14,8)              2.8538750     
    373     (1,14,9)              2.8538750     
    374     (1,14,10)             2.8538750     
    375     (1,14,11)             2.8538750     
    376     (1,14,12)             2.8538750     
    377     (1,14,13)             2.8538750     
    378     (1,14,14)             2.8538750     
    379     (1,14,15)             2.8538750     
    380     (1,14,16)             2.8538750     
    381     (1,14,17)             2.8538750     
    382     (1,14,18)             2.8538750     
    383     (1,14,19)             2.8538750     
    384     (1,14,20)             2.8538750     
    385     (1,14,21)             2.8538750     
    386     (1,14,22)             2.8538750     
    387     (1,14,23)             2.8538750     
    388     (1,14,24)             2.8538750     
    389     (1,14,25)             2.8538750     
    390     (1,14,26)             2.8538750     
    391     (1,14,27)             2.8538750     
    392     (1,14,28)             2.8538750     
    393     (1,15,1)              2.8538750     
    394     (1,15,2)              2.8538750     
    395     (1,15,3)              2.8538750     
    396     (1,15,4)              2.8538750     
    397     (1,15,5)              2.8538750     
    398     (1,15,6)              2.8538750     
    399     (1,15,7)              2.8538750     
    400     (1,15,8)              2.8538750     
    401     (1,15,9)              2.8538750     
    402     (1,15,10)             2.8538750     
    403     (1,15,11)             2.8538750     
    404     (1,15,12)             2.8538750     
    405     (1,15,13)             2.8538750     
    406     (1,15,14)             2.8538750     
    407     (1,15,15)             2.8538750     
    408     (1,15,16)             2.8538750     
    409     (1,15,17)             2.8538750     
    410     (1,15,18)             2.8538750     
    411     (1,15,19)             2.8538750     
    412     (1,15,20)             2.8538750     
    413     (1,15,21)             2.8538750     
    414     (1,15,22)             2.8538750     
    415     (1,15,23)             2.8538750     
    416     (1,15,24)             2.8538750     
    417     (1,15,25)             2.8538750     
    418     (1,15,26)             2.8538750     
    419     (1,15,27)             2.8538750     
    420     (1,15,28)             2.8538750     
    421     (1,16,1)              2.8538750     
    422     (1,16,2)              2.8538750     
    423     (1,16,3)              2.8538750     
    424     (1,16,4)              2.8538750     
    425     (1,16,5)              2.8538750     
    426     (1,16,6)              2.8538750     
    427     (1,16,7)              2.8538750     
    428     (1,16,8)              2.8538750     
    429     (1,16,9)              2.8538750     
    430     (1,16,10)             2.8538750     
    431     (1,16,11)             2.8538750     
    432     (1,16,12)             2.8538750     
    433     (1,16,13)             2.8538750     
    434     (1,16,14)             2.8538750     
    435     (1,16,15)             2.8538750     
    436     (1,16,16)             2.8538750     
    437     (1,16,17)             2.8538750     
    438     (1,16,18)             2.8538750     
    439     (1,16,19)             2.8538750     
    440     (1,16,20)             2.8538750     
    441     (1,16,21)             2.8538750     
    442     (1,16,22)             2.8538750     
    443     (1,16,23)             2.8538750     
    444     (1,16,24)             2.8538750     
    445     (1,16,25)             2.8538750     
    446     (1,16,26)             2.8538750     
    447     (1,16,27)             2.8538750     
    448     (1,16,28)             2.8538750     
    449     (1,17,1)              2.8538750     
    450     (1,17,2)              2.8538750     
    451     (1,17,3)              2.8538750     
    452     (1,17,4)              2.8538750     
    453     (1,17,5)              2.8538750     
    454     (1,17,6)              2.8538750     
    455     (1,17,7)              2.8538750     
    456     (1,17,8)              2.8538750     
    457     (1,17,9)              2.8538750     
    458     (1,17,10)             2.8538750     
    459     (1,17,11)             2.8538750     
    460     (1,17,12)             2.8538750     
    461     (1,17,13)             2.8538750     
    462     (1,17,14)             2.8538750     
    463     (1,17,15)             2.8538750     
    464     (1,17,16)             2.8538750     
    465     (1,17,17)             2.8538750     
    466     (1,17,18)             2.8538750     
    467     (1,17,19)             2.8538750     
    468     (1,17,20)             2.8538750     
    469     (1,17,21)             2.8538750     
    470     (1,17,22)             2.8538750     
    471     (1,17,23)             2.8538750     
    472     (1,17,24)             2.8538750     
    473     (1,17,25)             2.8538750     
    474     (1,17,26)             2.8538750     
    475     (1,17,27)             2.8538750     
    476     (1,17,28)             2.8538750     
    477     (1,18,1)              2.8538750     
    478     (1,18,2)              2.8538750     
    479     (1,18,3)              2.8538750     
    480     (1,18,4)              2.8538750     
    481     (1,18,5)              2.8538750     
    482     (1,18,6)              2.8538750     
    483     (1,18,7)              2.8538750     
    484     (1,18,8)              2.8538750     
    485     (1,18,9)              2.8538750     
    486     (1,18,10)             2.8538750     
    487     (1,18,11)             2.8538750     
    488     (1,18,12)             2.8538750     
    489     (1,18,13)             2.8538750     
    490     (1,18,14)             2.8538750     
    491     (1,18,15)             2.8538750     
    492     (1,18,16)             2.8538750     
    493     (1,18,17)             2.8538750     
    494     (1,18,18)             2.8538750     
    495     (1,18,19)             2.8538750     
    496     (1,18,20)             2.8538750     
    497     (1,18,21)             2.8538750     
    498     (1,18,22)             2.8538750     
    499     (1,18,23)             2.8538750     
    500     (1,18,24)             2.8538750     
    501     (1,18,25)             2.8538750     
    502     (1,18,26)             2.8538750     
    503     (1,18,27)             2.8538750     
    504     (1,18,28)             2.8538750     
    505     (1,19,1)              2.8538750     
    506     (1,19,2)              2.8538750     
    507     (1,19,3)              2.8538750     
    508     (1,19,4)              2.8538750     
    509     (1,19,5)              2.8538750     
    510     (1,19,6)              2.8538750     
    511     (1,19,7)              2.8538750     
    512     (1,19,8)              2.8538750     
    513     (1,19,9)              2.8538750     
    514     (1,19,10)             2.8538750     
    515     (1,19,11)             2.8538750     
    516     (1,19,12)             2.8538750     
    517     (1,19,13)             2.8538750     
    518     (1,19,14)             2.8538750     
    519     (1,19,15)             2.8538750     
    520     (1,19,16)             2.8538750     
    521     (1,19,17)             2.8538750     
    522     (1,19,18)             2.8538750     
    523     (1,19,19)             2.8538750     
    524     (1,19,20)             2.8538750     
    525     (1,19,21)             2.8538750     
    526     (1,19,22)             2.8538750     
    527     (1,19,23)             2.8538750     
    528     (1,19,24)             2.8538750     
    529     (1,19,25)             2.8538750     
    530     (1,19,26)             2.8538750     
    531     (1,19,27)             2.8538750     
    532     (1,19,28)             2.8538750     
    533     (1,20,1)              2.8538750     
    534     (1,20,2)              2.8538750     
    535     (1,20,3)              2.8538750     
    536     (1,20,4)              2.8538750     
    537     (1,20,5)              2.8538750     
    538     (1,20,6)              2.8538750     
    539     (1,20,7)              2.8538750     
    540     (1,20,8)              2.8538750     
    541     (1,20,9)              2.8538750     
    542     (1,20,10)             2.8538750     
    543     (1,20,11)             2.8538750     
    544     (1,20,12)             2.8538750     
    545     (1,20,13)             2.8538750     
    546     (1,20,14)             2.8538750     
    547     (1,20,15)             2.8538750     
    548     (1,20,16)             2.8538750     
    549     (1,20,17)             2.8538750     
    550     (1,20,18)             2.8538750     
    551     (1,20,19)             2.8538750     
    552     (1,20,20)             2.8538750     
    553     (1,20,21)             2.8538750     
    554     (1,20,22)             2.8538750     
    555     (1,20,23)             2.8538750     
    556     (1,20,24)             2.8538750     
    557     (1,20,25)             2.8538750     
    558     (1,20,26)             2.8538750     
    559     (1,20,27)             2.8538750     
    560     (1,20,28)             2.8538750     
    561     (1,21,1)              2.8538750     
    562     (1,21,2)              2.8538750     
    563     (1,21,3)              2.8538750     
    564     (1,21,4)              2.8538750     
    565     (1,21,5)              2.8538750     
    566     (1,21,6)              2.8538750     
    567     (1,21,7)              2.8538750     
    568     (1,21,8)              2.8538750     
    569     (1,21,9)              2.8538750     
    570     (1,21,10)             2.8538750     
    571     (1,21,11)             2.8538750     
    572     (1,21,12)             2.8538750     
    573     (1,21,13)             2.8538750     
    574     (1,21,14)             2.8538750     
    575     (1,21,15)             2.8538750     
    576     (1,21,16)             2.8538750     
    577     (1,21,17)             2.8538750     
    578     (1,21,18)             2.8538750     
    579     (1,21,19)             2.8538750     
    580     (1,21,20)             2.8538750     
    581     (1,21,21)             2.8538750     
    582     (1,21,22)             2.8538750     
    583     (1,21,23)             2.8538750     
    584     (1,21,24)             2.8538750     
    585     (1,21,25)             2.8538750     
    586     (1,21,26)             2.8538750     
    587     (1,21,27)             2.8538750     
    588     (1,21,28)             2.8538750     
    589     (1,22,1)              2.8538750     
    590     (1,22,2)              2.8538750     
    591     (1,22,3)              2.8538750     
    592     (1,22,4)              2.8538750     
    593     (1,22,5)              2.8538750     
    594     (1,22,6)              2.8538750     
    595     (1,22,7)              2.8538750     
    596     (1,22,8)              2.8538750     
    597     (1,22,9)              2.8538750     
    598     (1,22,10)             2.8538750     
    599     (1,22,11)             2.8538750     
    600     (1,22,12)             2.8538750     
    601     (1,22,13)             2.8538750     
    602     (1,22,14)             2.8538750     
    603     (1,22,15)             2.8538750     
    604     (1,22,16)             2.8538750     
    605     (1,22,17)             2.8538750     
    606     (1,22,18)             2.8538750     
    607     (1,22,19)             2.8538750     
    608     (1,22,20)             2.8538750     
    609     (1,22,21)             2.8538750     
    610     (1,22,22)             2.8538750     
    611     (1,22,23)             2.8538750     
    612     (1,22,24)             2.8538750     
    613     (1,22,25)             2.8538750     
    614     (1,22,26)             2.8538750     
    615     (1,22,27)             2.8538750     
    616     (1,22,28)             2.8538750     
    617     (1,23,1)              2.8538750     
    618     (1,23,2)              2.8538750     
    619     (1,23,3)              2.8538750     
    620     (1,23,4)              2.8538750     
    621     (1,23,5)              2.8538750     
    622     (1,23,6)              2.8538750     
    623     (1,23,7)              2.8538750     
    624     (1,23,8)              2.8538750     
    625     (1,23,9)              2.8538750     
    626     (1,23,10)             2.8538750     
    627     (1,23,11)             2.8538750     
    628     (1,23,12)             2.8538750     
    629     (1,23,13)             2.8538750     
    630     (1,23,14)             2.8538750     
    631     (1,23,15)             2.8538750     
    632     (1,23,16)             2.8538750     
    633     (1,23,17)             2.8538750     
    634     (1,23,18)             2.8538750     
    635     (1,23,19)             2.8538750     
    636     (1,23,20)             2.8538750     
    637     (1,23,21)             2.8538750     
    638     (1,23,22)             2.8538750     
    639     (1,23,23)             2.8538750     
    640     (1,23,24)             2.8538750     
    641     (1,23,25)             2.8538750     
    642     (1,23,26)             2.8538750     
    643     (1,23,27)             2.8538750     
    644     (1,23,28)             2.8538750     
    645     (1,24,1)              2.8538750     
    646     (1,24,2)              2.8538750     
    647     (1,24,3)              2.8538750     
    648     (1,24,4)              2.8538750     
    649     (1,24,5)              2.8538750     
    650     (1,24,6)              2.8538750     
    651     (1,24,7)              2.8538750     
    652     (1,24,8)              2.8538750     
    653     (1,24,9)              2.8538750     
    654     (1,24,10)             2.8538750     
    655     (1,24,11)             2.8538750     
    656     (1,24,12)             2.8538750     
    657     (1,24,13)             2.8538750     
    658     (1,24,14)             2.8538750     
    659     (1,24,15)             2.8538750     
    660     (1,24,16)             2.8538750     
    661     (1,24,17)             2.8538750     
    662     (1,24,18)             2.8538750     
    663     (1,24,19)             2.8538750     
    664     (1,24,20)             2.8538750     
    665     (1,24,21)             2.8538750     
    666     (1,24,22)             2.8538750     
    667     (1,24,23)             2.8538750     
    668     (1,24,24)             2.8538750     
    669     (1,24,25)             2.8538750     
    670     (1,24,26)             2.8538750     
    671     (1,24,27)             2.8538750     
    672     (1,24,28)             2.8538750     
    673     (1,25,1)              2.8538750     
    674     (1,25,2)              2.8538750     
    675     (1,25,3)              2.8538750     
    676     (1,25,4)              2.8538750     
    677     (1,25,5)              2.8538750     
    678     (1,25,6)              2.8538750     
    679     (1,25,7)              2.8538750     
    680     (1,25,8)              2.8538750     
    681     (1,25,9)              2.8538750     
    682     (1,25,10)             2.8538750     
    683     (1,25,11)             2.8538750     
    684     (1,25,12)             2.8538750     
    685     (1,25,13)             2.8538750     
    686     (1,25,14)             2.8538750     
    687     (1,25,15)             2.8538750     
    688     (1,25,16)             2.8538750     
    689     (1,25,17)             2.8538750     
    690     (1,25,18)             2.8538750     
    691     (1,25,19)             2.8538750     
    692     (1,25,20)             2.8538750     
    693     (1,25,21)             2.8538750     
    694     (1,25,22)             2.8538750     
    695     (1,25,23)             2.8538750     
    696     (1,25,24)             2.8538750     
    697     (1,25,25)             2.8538750     
    698     (1,25,26)             2.8538750     
    699     (1,25,27)             2.8538750     
    700     (1,25,28)             2.8538750     
    701     (1,26,1)              2.8538750     
    702     (1,26,2)              2.8538750     
    703     (1,26,3)              2.8538750     
    704     (1,26,4)              2.8538750     
    705     (1,26,5)              2.8538750     
    706     (1,26,6)              2.8538750     
    707     (1,26,7)              2.8538750     
    708     (1,26,8)              2.8538750     
    709     (1,26,9)              2.8538750     
    710     (1,26,10)             2.8538750     
    711     (1,26,11)             2.8538750     
    712     (1,26,12)             2.8538750     
    713     (1,26,13)             2.8538750     
    714     (1,26,14)             2.8538750     
    715     (1,26,15)             2.8538750     
    716     (1,26,16)             2.8538750     
    717     (1,26,17)             2.8538750     
    718     (1,26,18)             2.8538750     
    719     (1,26,19)             2.8538750     
    720     (1,26,20)             2.8538750     
    721     (1,26,21)             2.8538750     
    722     (1,26,22)             2.8538750     
    723     (1,26,23)             2.8538750     
    724     (1,26,24)             2.8538750     
    725     (1,26,25)             2.8538750     
    726     (1,26,26)             2.8538750     
    727     (1,26,27)             2.8538750     
    728     (1,26,28)             2.8538750     
    729     (1,27,1)              2.8538750     
    730     (1,27,2)              2.8538750     
    731     (1,27,3)              2.8538750     
    732     (1,27,4)              2.8538750     
    733     (1,27,5)              2.8538750     
    734     (1,27,6)              2.8538750     
    735     (1,27,7)              2.8538750     
    736     (1,27,8)              2.8538750     
    737     (1,27,9)              2.8538750     
    738     (1,27,10)             2.8538750     
    739     (1,27,11)             2.8538750     
    740     (1,27,12)             2.8538750     
    741     (1,27,13)             2.8538750     
    742     (1,27,14)             2.8538750     
    743     (1,27,15)             2.8538750     
    744     (1,27,16)             2.8538750     
    745     (1,27,17)             2.8538750     
    746     (1,27,18)             2.8538750     
    747     (1,27,19)             2.8538750     
    748     (1,27,20)             2.8538750     
    749     (1,27,21)             2.8538750     
    750     (1,27,22)             2.8538750     
    751     (1,27,23)             2.8538750     
    752     (1,27,24)             2.8538750     
    753     (1,27,25)             2.8538750     
    754     (1,27,26)             2.8538750     
    755     (1,27,27)             2.8538750     
    756     (1,27,28)             2.8538750     
    757     (1,28,1)              2.8538750     
    758     (1,28,2)              2.8538750     
    759     (1,28,3)              2.8538750     
    760     (1,28,4)              2.8538750     
    761     (1,28,5)              2.8538750     
    762     (1,28,6)              2.8538750     
    763     (1,28,7)              2.8538750     
    764     (1,28,8)              2.8538750     
    765     (1,28,9)              2.8538750     
    766     (1,28,10)             2.8538750     
    767     (1,28,11)             2.8538750     
    768     (1,28,12)             2.8538750     
    769     (1,28,13)             2.8538750     
    770     (1,28,14)             2.8538750     
    771     (1,28,15)             2.8538750     
    772     (1,28,16)             2.8538750     
    773     (1,28,17)             2.8538750     
    774     (1,28,18)             2.8538750     
    775     (1,28,19)             2.8538750     
    776     (1,28,20)             2.8538750     
    777     (1,28,21)             2.8538750     
    778     (1,28,22)             2.8538750     
    779     (1,28,23)             2.8538750     
    780     (1,28,24)             2.8538750     
    781     (1,28,25)             2.8538750     
    782     (1,28,26)             2.8538750     
    783     (1,28,27)             2.8538750     
    784     (1,28,28)             2.8538750     
    785     (1,29,1)              2.8538750     
    786     (1,29,2)              2.8538750     
    787     (1,29,3)              2.8538750     
    788     (1,29,4)              2.8538750     
    789     (1,29,5)              2.8538750     
    790     (1,29,6)              2.8538750     
    791     (1,29,7)              2.8538750     
    792     (1,29,8)              2.8538750     
    793     (1,29,9)              2.8538750     
    794     (1,29,10)             2.8538750     
    795     (1,29,11)             2.8538750     
    796     (1,29,12)             2.8538750     
    797     (1,29,13)             2.8538750     
    798     (1,29,14)             2.8538750     
    799     (1,29,15)             2.8538750     
    800     (1,29,16)             2.8538750     
    801     (1,29,17)             2.8538750     
    802     (1,29,18)             2.8538750     
    803     (1,29,19)             2.8538750     
    804     (1,29,20)             2.8538750     
    805     (1,29,21)             2.8538750     
    806     (1,29,22)             2.8538750     
    807     (1,29,23)             2.8538750     
    808     (1,29,24)             2.8538750     
    809     (1,29,25)             2.8538750     
    810     (1,29,26)             2.8538750     
    811     (1,29,27)             2.8538750     
    812     (1,29,28)             2.8538750     
    813     (1,30,1)              2.8538750     
    814     (1,30,2)              2.8538750     
    815     (1,30,3)              2.8538750     
    816     (1,30,4)              2.8538750     
    817     (1,30,5)              2.8538750     
    818     (1,30,6)              2.8538750     
    819     (1,30,7)              2.8538750     
    820     (1,30,8)              2.8538750     
    821     (1,30,9)              2.8538750     
    822     (1,30,10)             2.8538750     
    823     (1,30,11)             2.8538750     
    824     (1,30,12)             2.8538750     
    825     (1,30,13)             2.8538750     
    826     (1,30,14)             2.8538750     
    827     (1,30,15)             2.8538750     
    828     (1,30,16)             2.8538750     
    829     (1,30,17)             2.8538750     
    830     (1,30,18)             2.8538750     
    831     (1,30,19)             2.8538750     
    832     (1,30,20)             2.8538750     
    833     (1,30,21)             2.8538750     
    834     (1,30,22)             2.8538750     
    835     (1,30,23)             2.8538750     
    836     (1,30,24)             2.8538750     
    837     (1,30,25)             2.8538750     
    838     (1,30,26)             2.8538750     
    839     (1,30,27)             2.8538750     
    840     (1,30,28)             2.8538750     
    841     (1,31,1)              2.8538750     
    842     (1,31,2)              2.8538750     
    843     (1,31,3)              2.8538750     
    844     (1,31,4)              2.8538750     
    845     (1,31,5)              2.8538750     
    846     (1,31,6)              2.8538750     
    847     (1,31,7)              2.8538750     
    848     (1,31,8)              2.8538750     
    849     (1,31,9)              2.8538750     
    850     (1,31,10)             2.8538750     
    851     (1,31,11)             2.8538750     
    852     (1,31,12)             2.8538750     
    853     (1,31,13)             2.8538750     
    854     (1,31,14)             2.8538750     
    855     (1,31,15)             2.8538750     
    856     (1,31,16)             2.8538750     
    857     (1,31,17)             2.8538750     
    858     (1,31,18)             2.8538750     
    859     (1,31,19)             2.8538750     
    860     (1,31,20)             2.8538750     
    861     (1,31,21)             2.8538750     
    862     (1,31,22)             2.8538750     
    863     (1,31,23)             2.8538750     
    864     (1,31,24)             2.8538750     
    865     (1,31,25)             2.8538750     
    866     (1,31,26)             2.8538750     
    867     (1,31,27)             2.8538750     
    868     (1,31,28)             2.8538750     
    869     (1,32,1)              2.8538750     
    870     (1,32,2)              2.8538750     
    871     (1,32,3)              2.8538750     
    872     (1,32,4)              2.8538750     
    873     (1,32,5)              2.8538750     
    874     (1,32,6)              2.8538750     
    875     (1,32,7)              2.8538750     
    876     (1,32,8)              2.8538750     
    877     (1,32,9)              2.8538750     
    878     (1,32,10)             2.8538750     
    879     (1,32,11)             2.8538750     
    880     (1,32,12)             2.8538750     
    881     (1,32,13)             2.8538750     
    882     (1,32,14)             2.8538750     
    883     (1,32,15)             2.8538750     
    884     (1,32,16)             2.8538750     
    885     (1,32,17)             2.8538750     
    886     (1,32,18)             2.8538750     
    887     (1,32,19)             2.8538750     
    888     (1,32,20)             2.8538750     
    889     (1,32,21)             2.8538750     
    890     (1,32,22)             2.8538750     
    891     (1,32,23)             2.8538750     
    892     (1,32,24)             2.8538750     
    893     (1,32,25)             2.8538750     
    894     (1,32,26)             2.8538750     
    895     (1,32,27)             2.8538750     
    896     (1,32,28)             2.8538750     
    897     (1,33,1)              2.8538750     
    898     (1,33,2)              2.8538750     
    899     (1,33,3)              2.8538750     
    900     (1,33,4)              2.8538750     
    901     (1,33,5)              2.8538750     
    902     (1,33,6)              2.8538750     
    903     (1,33,7)              2.8538750     
    904     (1,33,8)              2.8538750     
    905     (1,33,9)              2.8538750     
    906     (1,33,10)             2.8538750     
    907     (1,33,11)             2.8538750     
    908     (1,33,12)             2.8538750     
    909     (1,33,13)             2.8538750     
    910     (1,33,14)             2.8538750     
    911     (1,33,15)             2.8538750     
    912     (1,33,16)             2.8538750     
    913     (1,33,17)             2.8538750     
    914     (1,33,18)             2.8538750     
    915     (1,33,19)             2.8538750     
    916     (1,33,20)             2.8538750     
    917     (1,33,21)             2.8538750     
    918     (1,33,22)             2.8538750     
    919     (1,33,23)             2.8538750     
    920     (1,33,24)             2.8538750     
    921     (1,33,25)             2.8538750     
    922     (1,33,26)             2.8538750     
    923     (1,33,27)             2.8538750     
    924     (1,33,28)             2.8538750     
    925     (1,34,1)              2.8538750     
    926     (1,34,2)              2.8538750     
    927     (1,34,3)              2.8538750     
    928     (1,34,4)              2.8538750     
    929     (1,34,5)              2.8538750     
    930     (1,34,6)              2.8538750     
    931     (1,34,7)              2.8538750     
    932     (1,34,8)              2.8538750     
    933     (1,34,9)              2.8538750     
    934     (1,34,10)             2.8538750     
    935     (1,34,11)             2.8538750     
    936     (1,34,12)             2.8538750     
    937     (1,34,13)             2.8538750     
    938     (1,34,14)             2.8538750     
    939     (1,34,15)             2.8538750     
    940     (1,34,16)             2.8538750     
    941     (1,34,17)             2.8538750     
    942     (1,34,18)             2.8538750     
    943     (1,34,19)             2.8538750     
    944     (1,34,20)             2.8538750     
    945     (1,34,21)             2.8538750     
    946     (1,34,22)             2.8538750     
    947     (1,34,23)             2.8538750     
    948     (1,34,24)             2.8538750     
    949     (1,34,25)             2.8538750     
    950     (1,34,26)             2.8538750     
    951     (1,34,27)             2.8538750     
    952     (1,34,28)             2.8538750     
    953     (1,35,1)              2.8538750     
    954     (1,35,2)              2.8538750     
    955     (1,35,3)              2.8538750     
    956     (1,35,4)              2.8538750     
    957     (1,35,5)              2.8538750     
    958     (1,35,6)              2.8538750     
    959     (1,35,7)              2.8538750     
    960     (1,35,8)              2.8538750     
    961     (1,35,9)              2.8538750     
    962     (1,35,10)             2.8538750     
    963     (1,35,11)             2.8538750     
    964     (1,35,12)             2.8538750     
    965     (1,35,13)             2.8538750     
    966     (1,35,14)             2.8538750     
    967     (1,35,15)             2.8538750     
    968     (1,35,16)             2.8538750     
    969     (1,35,17)             2.8538750     
    970     (1,35,18)             2.8538750     
    971     (1,35,19)             2.8538750     
    972     (1,35,20)             2.8538750     
    973     (1,35,21)             2.8538750     
    974     (1,35,22)             2.8538750     
    975     (1,35,23)             2.8538750     
    976     (1,35,24)             2.8538750     
    977     (1,35,25)             2.8538750     
    978     (1,35,26)             2.8538750     
    979     (1,35,27)             2.8538750     
    980     (1,35,28)             2.8538750     
    981     (1,36,1)              2.8538750     
    982     (1,36,2)              2.8538750     
    983     (1,36,3)              2.8538750     
    984     (1,36,4)              2.8538750     
    985     (1,36,5)              2.8538750     
    986     (1,36,6)              2.8538750     
    987     (1,36,7)              2.8538750     
    988     (1,36,8)              2.8538750     
    989     (1,36,9)              2.8538750     
    990     (1,36,10)             2.8538750     
    991     (1,36,11)             2.8538750     
    992     (1,36,12)             2.8538750     
    993     (1,36,13)             2.8538750     
    994     (1,36,14)             2.8538750     
    995     (1,36,15)             2.8538750     
    996     (1,36,16)             2.8538750     
    997     (1,36,17)             2.8538750     
    998     (1,36,18)             2.8538750     
    999     (1,36,19)             2.8538750     
    1000    (1,36,20)             2.8538750     
    1001    (1,36,21)             2.8538750     
    1002    (1,36,22)             2.8538750     
    1003    (1,36,23)             2.8538750     
    1004    (1,36,24)             2.8538750     
    1005    (1,36,25)             2.8538750     
    1006    (1,36,26)             2.8538750     
    1007    (1,36,27)             2.8538750     
    1008    (1,36,28)             2.8538750     
    1009    (1,37,1)              2.8538750     
    1010    (1,37,2)              2.8538750     
    1011    (1,37,3)              2.8538750     
    1012    (1,37,4)              2.8538750     
    1013    (1,37,5)              2.8538750     
    1014    (1,37,6)              2.8538750     
    1015    (1,37,7)              2.8538750     
    1016    (1,37,8)              2.8538750     
    1017    (1,37,9)              2.8538750     
    1018    (1,37,10)             2.8538750     
    1019    (1,37,11)             2.8538750     
    1020    (1,37,12)             2.8538750     
    1021    (1,37,13)             2.8538750     
    1022    (1,37,14)             2.8538750     
    1023    (1,37,15)             2.8538750     
    1024    (1,37,16)             2.8538750     
    1025    (1,37,17)             2.8538750     
    1026    (1,37,18)             2.8538750     
    1027    (1,37,19)             2.8538750     
    1028    (1,37,20)             2.8538750     
    1029    (1,37,21)             2.8538750     
    1030    (1,37,22)             2.8538750     
    1031    (1,37,23)             2.8538750     
    1032    (1,37,24)             2.8538750     
    1033    (1,37,25)             2.8538750     
    1034    (1,37,26)             2.8538750     
    1035    (1,37,27)             2.8538750     
    1036    (1,37,28)             2.8538750     
    1037    (1,38,1)              2.8538750     
    1038    (1,38,2)              2.8538750     
    1039    (1,38,3)              2.8538750     
    1040    (1,38,4)              2.8538750     
    1041    (1,38,5)              2.8538750     
    1042    (1,38,6)              2.8538750     
    1043    (1,38,7)              2.8538750     
    1044    (1,38,8)              2.8538750     
    1045    (1,38,9)              2.8538750     
    1046    (1,38,10)             2.8538750     
    1047    (1,38,11)             2.8538750     
    1048    (1,38,12)             2.8538750     
    1049    (1,38,13)             2.8538750     
    1050    (1,38,14)             2.8538750     
    1051    (1,38,15)             2.8538750     
    1052    (1,38,16)             2.8538750     
    1053    (1,38,17)             2.8538750     
    1054    (1,38,18)             2.8538750     
    1055    (1,38,19)             2.8538750     
    1056    (1,38,20)             2.8538750     
    1057    (1,38,21)             2.8538750     
    1058    (1,38,22)             2.8538750     
    1059    (1,38,23)             2.8538750     
    1060    (1,38,24)             2.8538750     
    1061    (1,38,25)             2.8538750     
    1062    (1,38,26)             2.8538750     
    1063    (1,38,27)             2.8538750     
    1064    (1,38,28)             2.8538750     
    1065    (1,39,1)              2.8538750     
    1066    (1,39,2)              2.8538750     
    1067    (1,39,3)              2.8538750     
    1068    (1,39,4)              2.8538750     
    1069    (1,39,5)              2.8538750     
    1070    (1,39,6)              2.8538750     
    1071    (1,39,7)              2.8538750     
    1072    (1,39,8)              2.8538750     
    1073    (1,39,9)              2.8538750     
    1074    (1,39,10)             2.8538750     
    1075    (1,39,11)             2.8538750     
    1076    (1,39,12)             2.8538750     
    1077    (1,39,13)             2.8538750     
    1078    (1,39,14)             2.8538750     
    1079    (1,39,15)             2.8538750     
    1080    (1,39,16)             2.8538750     
    1081    (1,39,17)             2.8538750     
    1082    (1,39,18)             2.8538750     
    1083    (1,39,19)             2.8538750     
    1084    (1,39,20)             2.8538750     
    1085    (1,39,21)             2.8538750     
    1086    (1,39,22)             2.8538750     
    1087    (1,39,23)             2.8538750     
    1088    (1,39,24)             2.8538750     
    1089    (1,39,25)             2.8538750     
    1090    (1,39,26)             2.8538750     
    1091    (1,39,27)             2.8538750     
    1092    (1,39,28)             2.8538750     
    1093    (1,40,1)              2.8538750     
    1094    (1,40,2)              2.8538750     
    1095    (1,40,3)              2.8538750     
    1096    (1,40,4)              2.8538750     
    1097    (1,40,5)              2.8538750     
    1098    (1,40,6)              2.8538750     
    1099    (1,40,7)              2.8538750     
    1100    (1,40,8)              2.8538750     
    1101    (1,40,9)              2.8538750     
    1102    (1,40,10)             2.8538750     
    1103    (1,40,11)             2.8538750     
    1104    (1,40,12)             2.8538750     
    1105    (1,40,13)             2.8538750     
    1106    (1,40,14)             2.8538750     
    1107    (1,40,15)             2.8538750     
    1108    (1,40,16)             2.8538750     
    1109    (1,40,17)             2.8538750     
    1110    (1,40,18)             2.8538750     
    1111    (1,40,19)             2.8538750     
    1112    (1,40,20)             2.8538750     
    1113    (1,40,21)             2.8538750     
    1114    (1,40,22)             2.8538750     
    1115    (1,40,23)             2.8538750     
    1116    (1,40,24)             2.8538750     
    1117    (1,40,25)             2.8538750     
    1118    (1,40,26)             2.8538750     
    1119    (1,40,27)             2.8538750     
    1120    (1,40,28)             2.8538750     
    1121    (1,41,1)              2.8538750     
    1122    (1,41,2)              2.8538750     
    1123    (1,41,3)              2.8538750     
    1124    (1,41,4)              2.8538750     
    1125    (1,41,5)              2.8538750     
    1126    (1,41,6)              2.8538750     
    1127    (1,41,7)              2.8538750     
    1128    (1,41,8)              2.8538750     
    1129    (1,41,9)              2.8538750     
    1130    (1,41,10)             2.8538750     
    1131    (1,41,11)             2.8538750     
    1132    (1,41,12)             2.8538750     
    1133    (1,41,13)             2.8538750     
    1134    (1,41,14)             2.8538750     
    1135    (1,41,15)             2.8538750     
    1136    (1,41,16)             2.8538750     
    1137    (1,41,17)             2.8538750     
    1138    (1,41,18)             2.8538750     
    1139    (1,41,19)             2.8538750     
    1140    (1,41,20)             2.8538750     
    1141    (1,41,21)             2.8538750     
    1142    (1,41,22)             2.8538750     
    1143    (1,41,23)             2.8538750     
    1144    (1,41,24)             2.8538750     
    1145    (1,41,25)             2.8538750     
    1146    (1,41,26)             2.8538750     
    1147    (1,41,27)             2.8538750     
    1148    (1,41,28)             2.8538750     
    1149    (1,42,1)              2.8538750     
    1150    (1,42,2)              2.8538750     
    1151    (1,42,3)              2.8538750     
    1152    (1,42,4)              2.8538750     
    1153    (1,42,5)              2.8538750     
    1154    (1,42,6)              2.8538750     
    1155    (1,42,7)              2.8538750     
    1156    (1,42,8)              2.8538750     
    1157    (1,42,9)              2.8538750     
    1158    (1,42,10)             2.8538750     
    1159    (1,42,11)             2.8538750     
    1160    (1,42,12)             2.8538750     
    1161    (1,42,13)             2.8538750     
    1162    (1,42,14)             2.8538750     
    1163    (1,42,15)             2.8538750     
    1164    (1,42,16)             2.8538750     
    1165    (1,42,17)             2.8538750     
    1166    (1,42,18)             2.8538750     
    1167    (1,42,19)             2.8538750     
    1168    (1,42,20)             2.8538750     
    1169    (1,42,21)             2.8538750     
    1170    (1,42,22)             2.8538750     
    1171    (1,42,23)             2.8538750     
    1172    (1,42,24)             2.8538750     
    1173    (1,42,25)             2.8538750     
    1174    (1,42,26)             2.8538750     
    1175    (1,42,27)             2.8538750     
    1176    (1,42,28)             2.8538750     
    1177    (1,43,1)              2.8538750     
    1178    (1,43,2)              2.8538750     
    1179    (1,43,3)              2.8538750     
    1180    (1,43,4)              2.8538750     
    1181    (1,43,5)              2.8538750     
    1182    (1,43,6)              2.8538750     
    1183    (1,43,7)              2.8538750     
    1184    (1,43,8)              2.8538750     
    1185    (1,43,9)              2.8538750     
    1186    (1,43,10)             2.8538750     
    1187    (1,43,11)             2.8538750     
    1188    (1,43,12)             2.8538750     
    1189    (1,43,13)             2.8538750     
    1190    (1,43,14)             2.8538750     
    1191    (1,43,15)             2.8538750     
    1192    (1,43,16)             2.8538750     
    1193    (1,43,17)             2.8538750     
    1194    (1,43,18)             2.8538750     
    1195    (1,43,19)             2.8538750     
    1196    (1,43,20)             2.8538750     
    1197    (1,43,21)             2.8538750     
    1198    (1,43,22)             2.8538750     
    1199    (1,43,23)             2.8538750     
    1200    (1,43,24)             2.8538750     
    1201    (1,43,25)             2.8538750     
    1202    (1,43,26)             2.8538750     
    1203    (1,43,27)             2.8538750     
    1204    (1,43,28)             2.8538750     
    1205    (1,44,1)              2.8538750     
    1206    (1,44,2)              2.8538750     
    1207    (1,44,3)              2.8538750     
    1208    (1,44,4)              2.8538750     
    1209    (1,44,5)              2.8538750     
    1210    (1,44,6)              2.8538750     
    1211    (1,44,7)              2.8538750     
    1212    (1,44,8)              2.8538750     
    1213    (1,44,9)              2.8538750     
    1214    (1,44,10)             2.8538750     
    1215    (1,44,11)             2.8538750     
    1216    (1,44,12)             2.8538750     
    1217    (1,44,13)             2.8538750     
    1218    (1,44,14)             2.8538750     
    1219    (1,44,15)             2.8538750     
    1220    (1,44,16)             2.8538750     
    1221    (1,44,17)             2.8538750     
    1222    (1,44,18)             2.8538750     
    1223    (1,44,19)             2.8538750     
    1224    (1,44,20)             2.8538750     
    1225    (1,44,21)             2.8538750     
    1226    (1,44,22)             2.8538750     
    1227    (1,44,23)             2.8538750     
    1228    (1,44,24)             2.8538750     
    1229    (1,44,25)             2.8538750     
    1230    (1,44,26)             2.8538750     
    1231    (1,44,27)             2.8538750     
    1232    (1,44,28)             2.8538750     
    1233    (1,45,1)              2.8538750     
    1234    (1,45,2)              2.8538750     
    1235    (1,45,3)              2.8538750     
    1236    (1,45,4)              2.8538750     
    1237    (1,45,5)              2.8538750     
    1238    (1,45,6)              2.8538750     
    1239    (1,45,7)              2.8538750     
    1240    (1,45,8)              2.8538750     
    1241    (1,45,9)              2.8538750     
    1242    (1,45,10)             2.8538750     
    1243    (1,45,11)             2.8538750     
    1244    (1,45,12)             2.8538750     
    1245    (1,45,13)             2.8538750     
    1246    (1,45,14)             2.8538750     
    1247    (1,45,15)             2.8538750     
    1248    (1,45,16)             2.8538750     
    1249    (1,45,17)             2.8538750     
    1250    (1,45,18)             2.8538750     
    1251    (1,45,19)             2.8538750     
    1252    (1,45,20)             2.8538750     
    1253    (1,45,21)             2.8538750     
    1254    (1,45,22)             2.8538750     
    1255    (1,45,23)             2.8538750     
    1256    (1,45,24)             2.8538750     
    1257    (1,45,25)             2.8538750     
    1258    (1,45,26)             2.8538750     
    1259    (1,45,27)             2.8538750     
    1260    (1,45,28)             2.8538750     
 -----------------------------------------------




 HEAD WILL BE SAVED ON UNIT 1052 AT END OF TIME STEP    1, STRESS PERIOD    1


  VOLUME BUDGET FOR ENTIRE MODEL AT END OF TIME STEP    1, STRESS PERIOD   1
  ---------------------------------------------------------------------------------------------------

     CUMULATIVE VOLUME      L**3       RATES FOR THIS TIME STEP      L**3/T          PACKAGE NAME    
     ------------------                 ------------------------                     ----------------

           IN:                                      IN:
           ---                                      ---
              STO-SS =           0.0000                STO-SS =           0.0000     STORAGE                          
                 WEL =           0.0000                   WEL =           0.0000     WEL-1                            
                RCHA =        7191.7650                  RCHA =        3595.8825     RCH-1                            
        FLOW-JA-FACE =      316081.5779          FLOW-JA-FACE =      158040.7890     GWF-GWF_1                        
    FLOW-JA-FACE-CHD =           0.0000      FLOW-JA-FACE-CHD =           0.0000     GWF-GWF_1                        

            TOTAL IN =      323273.3429              TOTAL IN =      161636.6715

          OUT:                                     OUT:
          ----                                     ----
              STO-SS =           0.0000                STO-SS =           0.0000     STORAGE                          
                 WEL =      296142.0000                   WEL =      148071.0000     WEL-1                            
                RCHA =           0.0000                  RCHA =           0.0000     RCH-1                            
        FLOW-JA-FACE =       27131.3429          FLOW-JA-FACE =       13565.6715     GWF-GWF_1                        
    FLOW-JA-FACE-CHD =           0.0000      FLOW-JA-FACE-CHD =           0.0000     GWF-GWF_1                        

           TOTAL OUT =      323273.3429             TOTAL OUT =      161636.6715

            IN - OUT =       5.8903E-06              IN - OUT =       2.9452E-06

 PERCENT DISCREPANCY =           0.00     PERCENT DISCREPANCY =           0.00




         TIME SUMMARY AT END OF TIME STEP    1 IN STRESS PERIOD    1
                    SECONDS     MINUTES      HOURS       DAYS        YEARS
                    -----------------------------------------------------------
   TIME STEP LENGTH 1.72800E+05  2880.0      48.000      2.0000     5.47570E-03
 STRESS PERIOD TIME 1.72800E+05  2880.0      48.000      2.0000     5.47570E-03
         TOTAL TIME 1.72800E+05  2880.0      48.000      2.0000     5.47570E-03


end timestep


start timestep kper="1" kstp="2" mode="normal"


end timestep


start timestep kper="1" kstp="3" mode="normal"


end timestep


start timestep kper="1" kstp="4" mode="normal"


end timestep


start timestep kper="1" kstp="5" mode="normal"


end timestep


start timestep kper="1" kstp="6" mode="normal"


end timestep


start timestep kper="1" kstp="7" mode="normal"


end timestep


start timestep kper="1" kstp="8" mode="normal"


end timestep


start timestep kper="1" kstp="9" mode="normal"


end timestep


start timestep kper="1" kstp="10" mode="normal"


end timestep


start timestep kper="1" kstp="11" mode="normal"


end timestep


start timestep kper="1" kstp="12" mode="normal"


end timestep


start timestep kper="1" kstp="13" mode="normal"


end timestep


start timestep kper="1" kstp="14" mode="normal"


end timestep


start timestep kper="1" kstp="15" mode="normal"


end timestep


start timestep kper="1" kstp="16" mode="normal"


end timestep


start timestep kper="1" kstp="17" mode="normal"


end timestep


start timestep kper="1" kstp="18" mode="normal"


end timestep


start timestep kper="1" kstp="19" mode="normal"


end timestep


start timestep kper="1" kstp="20" mode="normal"


end timestep


start timestep kper="1" kstp="21" mode="normal"


end timestep


start timestep kper="1" kstp="22" mode="normal"


end timestep


start timestep kper="1" kstp="23" mode="normal"


end timestep


start timestep kper="1" kstp="24" mode="normal"


end timestep


start timestep kper="1" kstp="25" mode="normal"


end timestep


start timestep kper="1" kstp="26" mode="normal"


end timestep


start timestep kper="1" kstp="27" mode="normal"


end timestep


start timestep kper="1" kstp="28" mode="normal"


end timestep


start timestep kper="1" kstp="29" mode="normal"


end timestep


start timestep kper="1" kstp="30" mode="normal"


end timestep


start timestep kper="1" kstp="31" mode="normal"


end timestep


start timestep kper="1" kstp="32" mode="normal"


end timestep


start timestep kper="1" kstp="33" mode="normal"


end timestep


start timestep kper="1" kstp="34" mode="normal"


end timestep


start timestep kper="1" kstp="35" mode="normal"


end timestep


start timestep kper="1" kstp="36" mode="normal"


end timestep


start timestep kper="1" kstp="37" mode="normal"


end timestep


start timestep kper="1" kstp="38" mode="normal"


end timestep


start timestep kper="1" kstp="39" mode="normal"


end timestep


start timestep kper="1" kstp="40" mode="normal"


end timestep


start timestep kper="1" kstp="41" mode="normal"


end timestep


start timestep kper="1" kstp="42" mode="normal"


end timestep


start timestep kper="1" kstp="43" mode="normal"


end timestep


start timestep kper="1" kstp="44" mode="normal"


end timestep


start timestep kper="1" kstp="45" mode="normal"


end timestep


start timestep kper="1" kstp="46" mode="normal"


end timestep


start timestep kper="1" kstp="47" mode="normal"


end timestep


start timestep kper="1" kstp="48" mode="normal"


end timestep


start timestep kper="1" kstp="49" mode="normal"


end timestep


start timestep kper="1" kstp="50" mode="normal"


end timestep


start timestep kper="1" kstp="51" mode="normal"


end timestep


start timestep kper="1" kstp="52" mode="normal"


end timestep


start timestep kper="1" kstp="53" mode="normal"


end timestep


start timestep kper="1" kstp="54" mode="normal"


end timestep


start timestep kper="1" kstp="55" mode="normal"


end timestep


start timestep kper="1" kstp="56" mode="normal"


end timestep


start timestep kper="1" kstp="57" mode="normal"


end timestep


start timestep kper="1" kstp="58" mode="normal"


end timestep


start timestep kper="1" kstp="59" mode="normal"


end timestep


start timestep kper="1" kstp="60" mode="normal"


end timestep


start timestep kper="1" kstp="61" mode="normal"


end timestep


start timestep kper="1" kstp="62" mode="normal"


end timestep


start timestep kper="1" kstp="63" mode="normal"


end timestep


start timestep kper="1" kstp="64" mode="normal"


end timestep


start timestep kper="1" kstp="65" mode="normal"


end timestep


start timestep kper="1" kstp="66" mode="normal"


end timestep


start timestep kper="1" kstp="67" mode="normal"


end timestep


start timestep kper="1" kstp="68" mode="normal"


end timestep


start timestep kper="1" kstp="69" mode="normal"


end timestep


start timestep kper="1" kstp="70" mode="normal"


end timestep


start timestep kper="1" kstp="71" mode="normal"


end timestep


start timestep kper="1" kstp="72" mode="normal"


end timestep


start timestep kper="1" kstp="73" mode="normal"


end timestep


start timestep kper="1" kstp="74" mode="normal"


end timestep


start timestep kper="1" kstp="75" mode="normal"


end timestep


start timestep kper="1" kstp="76" mode="normal"


end timestep


start timestep kper="1" kstp="77" mode="normal"


end timestep


start timestep kper="1" kstp="78" mode="normal"


end timestep


start timestep kper="1" kstp="79" mode="normal"


end timestep


start timestep kper="1" kstp="80" mode="normal"


end timestep


start timestep kper="1" kstp="81" mode="normal"


end timestep


start timestep kper="1" kstp="82" mode="normal"


end timestep


start timestep kper="1" kstp="83" mode="normal"


end timestep


start timestep kper="1" kstp="84" mode="normal"


end timestep


start timestep kper="1" kstp="85" mode="normal"


end timestep


start timestep kper="1" kstp="86" mode="normal"


end timestep


start timestep kper="1" kstp="87" mode="normal"


end timestep


start timestep kper="1" kstp="88" mode="normal"


end timestep


start timestep kper="1" kstp="89" mode="normal"


end timestep


start timestep kper="1" kstp="90" mode="normal"


end timestep


start timestep kper="1" kstp="91" mode="normal"


end timestep


start timestep kper="1" kstp="92" mode="normal"


end timestep


start timestep kper="1" kstp="93" mode="normal"


end timestep


start timestep kper="1" kstp="94" mode="normal"


end timestep


start timestep kper="1" kstp="95" mode="normal"


end timestep


start timestep kper="1" kstp="96" mode="normal"


end timestep


start timestep kper="1" kstp="97" mode="normal"


end timestep


start timestep kper="1" kstp="98" mode="normal"


end timestep


start timestep kper="1" kstp="99" mode="normal"


end timestep


start timestep kper="1" kstp="100" mode="normal"


end timestep


start timestep kper="1" kstp="101" mode="normal"


end timestep


start timestep kper="1" kstp="102" mode="normal"


end timestep


start timestep kper="1" kstp="103" mode="normal"


end timestep


start timestep kper="1" kstp="104" mode="normal"


end timestep


start timestep kper="1" kstp="105" mode="normal"


end timestep


start timestep kper="1" kstp="106" mode="normal"


end timestep


start timestep kper="1" kstp="107" mode="normal"


end timestep


start timestep kper="1" kstp="108" mode="normal"


end timestep
[...]
    178     (4,43,1)              300.75319     
    179     (4,44,1)              229.34745     
    180     (4,45,1)              171.27300     
    181     (1,1,28)              77.519564     
    182     (1,2,28)              80.995466     
    183     (1,3,28)              83.535003     
    184     (1,4,28)              84.923515     
    185     (1,5,28)              85.386992     
    186     (1,6,28)              85.368750     
    187     (1,7,28)              85.256883     
    188     (1,8,28)              85.262224     
    189     (1,9,28)              85.422357     
    190     (1,10,28)             85.662507     
    191     (1,11,28)             85.869464     
    192     (1,12,28)             85.954472     
    193     (1,13,28)             85.885754     
    194     (1,14,28)             85.682132     
    195     (1,15,28)             85.385448     
    196     (1,16,28)             85.034721     
    197     (1,17,28)             84.653451     
    198     (1,18,28)             84.249725     
    199     (1,19,28)             83.823076     
    200     (1,20,28)             83.371737     
    201     (1,21,28)             82.896574     
    202     (1,22,28)             82.401357     
    203     (1,23,28)             81.891024     
    204     (1,24,28)             81.369832     
    205     (1,25,28)             80.840424     
    206     (1,26,28)             80.303881     
    207     (1,27,28)             79.760312     
    208     (1,28,28)             79.209442     
    209     (1,29,28)             78.650916     
    210     (1,30,28)             78.084281     
    211     (1,31,28)             77.508798     
    212     (1,32,28)             76.923223     
    213     (1,33,28)             76.325657     
    214     (1,34,28)             75.713483     
    215     (1,35,28)             75.083378     
    216     (1,36,28)             74.431368     
    217     (1,37,28)             73.752932     
    218     (1,38,28)             73.043166     
    219     (1,39,28)             72.297038     
    220     (1,40,28)             71.509743     
    221     (1,41,28)             70.677134     
    222     (1,42,28)             69.796214     
    223     (1,43,28)             68.865593     
    224     (1,44,28)             67.885864     
    225     (1,45,28)             66.859800     
    226     (2,1,28)              79.504746     
    227     (2,2,28)              83.513343     
    228     (2,3,28)              86.296279     
    229     (2,4,28)              87.456183     
    230     (2,5,28)              87.411190     
    231     (2,6,28)              86.862166     
    232     (2,7,28)              86.337792     
    233     (2,8,28)              86.077073     
    234     (2,9,28)              86.087800     
    235     (2,10,28)             86.247549     
    236     (2,11,28)             86.399231     
    237     (2,12,28)             86.426585     
    238     (2,13,28)             86.291298     
    239     (2,14,28)             86.018518     
    240     (2,15,28)             85.658627     
    241     (2,16,28)             85.255581     
    242     (2,17,28)             84.833433     
    243     (2,18,28)             84.398128     
    244     (2,19,28)             83.946391     
    245     (2,20,28)             83.474291     
    246     (2,21,28)             82.981513     
    247     (2,22,28)             82.471338     
    248     (2,23,28)             81.948492     
    249     (2,24,28)             81.417019     
    250     (2,25,28)             80.879258     
    251     (2,26,28)             80.335939     
    252     (2,27,28)             79.786838     
    253     (2,28,28)             79.231416     
    254     (2,29,28)             78.669126     
    255     (2,30,28)             78.099383     
    256     (2,31,28)             77.521351     
    257     (2,32,28)             76.933704     
    258     (2,33,28)             76.334474     
    259     (2,34,28)             75.720984     
    260     (2,35,28)             75.089856     
    261     (2,36,28)             74.437072     
    262     (2,37,28)             73.758069     
    263     (2,38,28)             73.047907     
    264     (2,39,28)             72.301516     
    265     (2,40,28)             71.514050     
    266     (2,41,28)             70.681323     
    267     (2,42,28)             69.800296     
    268     (2,43,28)             68.869547     
    269     (2,44,28)             67.889642     
    270     (2,45,28)             66.863344     
    271     (3,1,28)              700.30471     
    272     (3,2,28)              738.21309     
    273     (3,3,28)              763.90070     
    274     (3,4,28)              772.49962     
    275     (3,5,28)              769.10157     
    276     (3,6,28)              761.35023     
    277     (3,7,28)              754.53912     
    278     (3,8,28)              750.82647     
    279     (3,9,28)              750.09291     
    280     (3,10,28)             751.01819     
    281     (3,11,28)             752.00716     
    282     (3,12,28)             751.90485     
    283     (3,13,28)             750.34491     
    284     (3,14,28)             747.57923     
    285     (3,15,28)             744.09019     
    286     (3,16,28)             740.28602     
    287     (3,17,28)             736.37941     
    288     (3,18,28)             732.41127     
    289     (3,19,28)             728.33845     
    290     (3,20,28)             724.11510     
    291     (3,21,28)             719.73183     
    292     (3,22,28)             715.21423     
    293     (3,23,28)             710.60201     
    294     (3,24,28)             705.92895     
    295     (3,25,28)             701.21355     
    296     (3,26,28)             696.46003     
    297     (3,27,28)             691.66443     
    298     (3,28,28)             686.82044     
    299     (3,29,28)             681.92210     
    300     (3,30,28)             676.96351     
    301     (3,31,28)             671.93677     
    302     (3,32,28)             666.82989     
    303     (3,33,28)             661.62534     
    304     (3,34,28)             656.29953     
    305     (3,35,28)             650.82283     
    306     (3,36,28)             645.16012     
    307     (3,37,28)             639.27159     
    308     (3,38,28)             633.11416     
    309     (3,39,28)             626.64365     
    310     (3,40,28)             619.81777     
    311     (3,41,28)             612.59998     
    312     (3,42,28)             604.96368     
    313     (3,43,28)             596.89630     
    314     (3,44,28)             588.40259     
    315     (3,45,28)             579.50641     
    316     (4,1,28)              694.63020     
    317     (4,2,28)              729.94942     
    318     (4,3,28)              754.27362     
    319     (4,4,28)              764.34837     
    320     (4,5,28)              763.64382     
    321     (4,6,28)              758.25269     
    322     (4,7,28)              752.96639     
    323     (4,8,28)              750.05120     
    324     (4,9,28)              749.65153     
    325     (4,10,28)             750.68023     
    326     (4,11,28)             751.70667     
    327     (4,12,28)             751.66309     
    328     (4,13,28)             750.18997     
    329     (4,14,28)             747.51174     
    330     (4,15,28)             744.08875     
    331     (4,16,28)             740.32360     
    332     (4,17,28)             736.43437     
    333     (4,18,28)             732.47062     
    334     (4,19,28)             728.39620     
    335     (4,20,28)             724.16915     
    336     (4,21,28)             719.78153     
    337     (4,22,28)             715.25926     
    338     (4,23,28)             710.64214     
    339     (4,24,28)             705.96415     
    340     (4,25,28)             701.24401     
    341     (4,26,28)             696.48614     
    342     (4,27,28)             691.68669     
    343     (4,28,28)             686.83934     
    344     (4,29,28)             681.93812     
    345     (4,30,28)             676.97706     
    346     (4,31,28)             671.94823     
    347     (4,32,28)             666.83960     
    348     (4,33,28)             661.63361     
    349     (4,34,28)             656.30663     
    350     (4,35,28)             650.82902     
    351     (4,36,28)             645.16560     
    352     (4,37,28)             639.27655     
    353     (4,38,28)             633.11874     
    354     (4,39,28)             626.64797     
    355     (4,40,28)             619.82192     
    356     (4,41,28)             612.60400     
    357     (4,42,28)             604.96757     
    358     (4,43,28)             596.90006     
    359     (4,44,28)             588.40618     
    360     (4,45,28)             579.50977     
    361     (1,1,1)               105.75268     
    362     (1,1,2)               106.71860     
    363     (1,1,3)               107.72411     
    364     (1,1,4)               108.77193     
    365     (1,1,5)               109.86516     
    366     (1,1,6)               111.00734     
    367     (1,1,7)               112.20250     
    368     (1,1,8)               113.45529     
    369     (1,1,9)               114.77110     
    370     (1,1,10)              116.15622     
    371     (1,1,11)              117.61827     
    372     (1,1,12)              119.16693     
    373     (1,1,13)              120.81539     
    374     (1,1,14)              122.58331     
    375     (1,1,15)              124.50210     
    376     (1,1,16)              126.62382     
    377     (1,1,17)              129.03359     
    378     (1,1,18)              131.86062     
    379     (1,1,19)              135.26881     
    380     (1,1,20)              139.37532     
    381     (1,1,21)              143.99699     
    382     (1,1,22)              148.13146     
    383     (1,1,23)              149.46415     
    384     (1,1,24)              145.56667     
    385     (1,1,25)              138.99954     
    386     (1,1,26)              132.19012     
    387     (1,1,27)              126.21968     
    388     (1,1,28)              121.31006     
    389     (2,1,1)               105.75301     
    390     (2,1,2)               106.71910     
    391     (2,1,3)               107.72488     
    392     (2,1,4)               108.77312     
    393     (2,1,5)               109.86701     
    394     (2,1,6)               111.01022     
    395     (2,1,7)               112.20699     
    396     (2,1,8)               113.46231     
    397     (2,1,9)               114.78209     
    398     (2,1,10)              116.17350     
    399     (2,1,11)              117.64562     
    400     (2,1,12)              119.21067     
    401     (2,1,13)              120.88648     
    402     (2,1,14)              122.70166     
    403     (2,1,15)              124.70567     
    404     (2,1,16)              126.98849     
    405     (2,1,17)              129.71603     
    406     (2,1,18)              133.18793     
    407     (2,1,19)              137.90951     
    408     (2,1,20)              144.60349     
    409     (2,1,21)              153.87341     
    410     (2,1,22)              164.76377     
    411     (2,1,23)              171.38426     
    412     (2,1,24)              162.16645     
    413     (2,1,25)              148.81753     
    414     (2,1,26)              137.34667     
    415     (2,1,27)              128.79367     
    416     (2,1,28)              122.60039     
    417     (3,1,1)               916.52829     
    418     (3,1,2)               924.90221     
    419     (3,1,3)               933.62082     
    420     (3,1,4)               942.70850     
    421     (3,1,5)               952.19337     
    422     (3,1,6)               962.10813     
    423     (3,1,7)               972.49105     
    424     (3,1,8)               983.38749     
    425     (3,1,9)               994.85212     
    426     (3,1,10)              1006.9527     
    427     (3,1,11)              1019.7768     
    428     (3,1,12)              1033.4456     
    429     (3,1,13)              1048.1403     
    430     (3,1,14)              1064.1582     
    431     (3,1,15)              1082.0251     
    432     (3,1,16)              1102.7238     
    433     (3,1,17)              1128.1406     
    434     (3,1,18)              1161.8988     
    435     (3,1,19)              1210.7600     
    436     (3,1,20)              1286.3351     
    437     (3,1,21)              1404.3861     
    438     (3,1,22)              1569.4889     
    439     (3,1,23)              1709.0720     
    440     (3,1,24)              1546.7769     
    441     (3,1,25)              1360.2040     
    442     (3,1,26)              1222.9898     
    443     (3,1,27)              1131.3203     
    444     (3,1,28)              1069.8681     
    445     (4,1,1)               916.52862     
    446     (4,1,2)               924.90270     
    447     (4,1,3)               933.62157     
    448     (4,1,4)               942.70965     
    449     (4,1,5)               952.19515     
    450     (4,1,6)               962.11086     
    451     (4,1,7)               972.49521     
    452     (4,1,8)               983.39377     
    453     (4,1,9)               994.86143     
    454     (4,1,10)              1006.9661     
    455     (4,1,11)              1019.7954     
    456     (4,1,12)              1033.4686     
    457     (4,1,13)              1048.1617     
    458     (4,1,14)              1064.1542     
    459     (4,1,15)              1081.9205     
    460     (4,1,16)              1102.2965     
    461     (4,1,17)              1126.7607     
    462     (4,1,18)              1157.8371     
    463     (4,1,19)              1199.4622     
    464     (4,1,20)              1256.5791     
    465     (4,1,21)              1331.7517     
    466     (4,1,22)              1414.1960     
    467     (4,1,23)              1458.9852     
    468     (4,1,24)              1391.4884     
    469     (4,1,25)              1287.5724     
    470     (4,1,26)              1193.2193     
    471     (4,1,27)              1119.9548     
    472     (4,1,28)              1065.5984     
    473     (1,45,1)             -24.136283     
    474     (1,45,2)             -19.391571     
    475     (1,45,3)             -15.052047     
    476     (1,45,4)             -11.283734     
    477     (1,45,5)             -7.9558612     
    478     (1,45,6)             -4.8371592     
    479     (1,45,7)             -1.7876018     
    480     (1,45,8)              1.2468719     
    481     (1,45,9)              4.3138617     
    482     (1,45,10)             7.0554333     
    483     (1,45,11)             7.1853145     
    484     (1,45,12)             0.28969267    
    485     (1,45,13)            -8.5459650     
    486     (1,45,14)            -16.462207     
    487     (1,45,15)            -22.821059     
    488     (1,45,16)            -27.818029     
    489     (1,45,17)            -31.798569     
    490     (1,45,18)            -35.052403     
    491     (1,45,19)            -37.785557     
    492     (1,45,20)            -40.137720     
    493     (1,45,21)            -42.203284     
    494     (1,45,22)            -44.047007     
    495     (1,45,23)            -45.714318     
    496     (1,45,24)            -47.237839     
    497     (1,45,25)            -48.641540     
    498     (1,45,26)            -49.943402     
    499     (1,45,27)            -51.157176     
    500     (1,45,28)            -52.293563     
    501     (2,45,1)             -22.338488     
    502     (2,45,2)             -17.021958     
    503     (2,45,3)             -12.236210     
    504     (2,45,4)             -8.2297926     
    505     (2,45,5)             -4.6226096     
    506     (2,45,6)             -0.82591320    
    507     (2,45,7)              3.7098254     
    508     (2,45,8)              9.7850257     
    509     (2,45,9)              19.100978     
    510     (2,45,10)             33.531884     
    511     (2,45,11)             46.867176     
    512     (2,45,12)             25.625840     
    513     (2,45,13)             4.1068124     
    514     (2,45,14)            -10.700316     
    515     (2,45,15)            -20.264833     
    516     (2,45,16)            -26.673292     
    517     (2,45,17)            -31.270612     
    518     (2,45,18)            -34.799149     
    519     (2,45,19)            -37.658903     
    520     (2,45,20)            -40.071854     
    521     (2,45,21)            -42.167847     
    522     (2,45,22)            -44.027399     
    523     (2,45,23)            -45.703219     
    524     (2,45,24)            -47.231441     
    525     (2,45,25)            -48.637795     
    526     (2,45,26)            -49.941180     
    527     (2,45,27)            -51.155838     
    528     (2,45,28)            -52.292738     
    529     (3,45,1)             -183.31586     
    530     (3,45,2)             -133.87107     
    531     (3,45,3)             -89.731967     
    532     (3,45,4)             -53.845566     
    533     (3,45,5)             -21.169479     
    534     (3,45,6)              15.756436     
    535     (3,45,7)              65.039903     
    536     (3,45,8)              142.37376     
    537     (3,45,9)              290.07140     
    538     (3,45,10)             596.37508     
    539     (3,45,11)             1074.9616     
    540     (3,45,12)             521.41276     
    541     (3,45,13)             147.91950     
    542     (3,45,14)            -51.172028     
    543     (3,45,15)            -159.48895     
    544     (3,45,16)            -224.41260     
    545     (3,45,17)            -267.94977     
    546     (3,45,18)            -300.10385     
    547     (3,45,19)            -325.61214     
    548     (3,45,20)            -346.87970     
    549     (3,45,21)            -365.22849     
    550     (3,45,22)            -381.44307     
    551     (3,45,23)            -396.02117     
    552     (3,45,24)            -409.29639     
    553     (3,45,25)            -421.50234     
    554     (3,45,26)            -432.80852     
    555     (3,45,27)            -443.34150     
    556     (3,45,28)            -453.19812     
    557     (4,45,1)             -187.94873     
    558     (4,45,2)             -140.78042     
    559     (4,45,3)             -98.242061     
    560     (4,45,4)             -62.334614     
    561     (4,45,5)             -30.005607     
    562     (4,45,6)              3.4933618     
    563     (4,45,7)              42.185079     
    564     (4,45,8)              90.909885     
    565     (4,45,9)              159.03490     
    566     (4,45,10)             253.73503     
    567     (4,45,11)             327.61335     
    568     (4,45,12)             182.77259     
    569     (4,45,13)             24.568542     
    570     (4,45,14)            -92.765937     
    571     (4,45,15)            -173.03965     
    572     (4,45,16)            -228.73195     
    573     (4,45,17)            -269.28985     
    574     (4,45,18)            -300.49756     
    575     (4,45,19)            -325.71302     
    576     (4,45,20)            -346.89514     
    577     (4,45,21)            -365.22258     
    578     (4,45,22)            -381.43434     
    579     (4,45,23)            -396.01413     
    580     (4,45,24)            -409.29152     
    581     (4,45,25)            -421.49918     
    582     (4,45,26)            -432.80652     
    583     (4,45,27)            -443.34025     
    584     (4,45,28)            -453.19733     
 -----------------------------------------------


