                                  MODFLOW-2005     
      U.S. GEOLOGICAL SURVEY MODULAR FINITE-DIFFERENCE GROUND-WATER FLOW MODEL
                       VERSION 1.6.01 3/4/2009, with FMP2

 LIST FILE: p08_mf.list
                         UNIT    2

 OPENING p08_mf.dis
 FILE TYPE:DIS   UNIT   11   STATUS:OLD    
 FORMAT:FORMATTED              ACCESS:SEQUENTIAL          

 OPENING p08_mf.bas
 FILE TYPE:BAS6   UNIT   13   STATUS:OLD    
 FORMAT:FORMATTED              ACCESS:SEQUENTIAL          

 OPENING p08_mf.lpf
 FILE TYPE:LPF   UNIT   15   STATUS:OLD    
 FORMAT:FORMATTED              ACCESS:SEQUENTIAL          

 OPENING p08_mf.rch
 FILE TYPE:RCH   UNIT   19   STATUS:OLD    
 FORMAT:FORMATTED              ACCESS:SEQUENTIAL          

 OPENING p08_mf.pcg
 FILE TYPE:PCG   UNIT   27   STATUS:OLD    
 FORMAT:FORMATTED              ACCESS:SEQUENTIAL          

 OPENING p08_mf.lmt6
 FILE TYPE:LMT6   UNIT   30   STATUS:OLD    
 FORMAT:FORMATTED              ACCESS:SEQUENTIAL          

 BAS -- BASIC PACKAGE, VERSION 7, 5/2/2005 INPUT READ FROM UNIT   13

 DISCRETIZATION INPUT DATA READ FROM UNIT   11
 # DIS package for MODFLOW-2005 generated by Flopy 3.9.1
   27 LAYERS         1 ROWS        50 COLUMNS
    1 STRESS PERIOD(S) IN SIMULATION
 MODEL TIME UNIT IS DAYS
 MODEL LENGTH UNIT IS METERS
  Confining bed flag for each layer:
   0   0   0   0   0   0   0   0   0   0   0   0   0   0   0   0   0   0   0   0
   0   0   0   0   0   0   0

                     DELR =   5.00000    

                     DELC =   1.00000    

 TOP ELEVATION OF LAYER 1 =   6.75000    

   MODEL LAYER BOTTOM EL. =   6.50000     FOR LAYER   1

   MODEL LAYER BOTTOM EL. =   6.25000     FOR LAYER   2

   MODEL LAYER BOTTOM EL. =   6.00000     FOR LAYER   3

   MODEL LAYER BOTTOM EL. =   5.75000     FOR LAYER   4

   MODEL LAYER BOTTOM EL. =   5.50000     FOR LAYER   5

   MODEL LAYER BOTTOM EL. =   5.25000     FOR LAYER   6

   MODEL LAYER BOTTOM EL. =   5.00000     FOR LAYER   7

   MODEL LAYER BOTTOM EL. =   4.75000     FOR LAYER   8

   MODEL LAYER BOTTOM EL. =   4.50000     FOR LAYER   9

   MODEL LAYER BOTTOM EL. =   4.25000     FOR LAYER  10

   MODEL LAYER BOTTOM EL. =   4.00000     FOR LAYER  11

   MODEL LAYER BOTTOM EL. =   3.75000     FOR LAYER  12

   MODEL LAYER BOTTOM EL. =   3.50000     FOR LAYER  13

   MODEL LAYER BOTTOM EL. =   3.25000     FOR LAYER  14

   MODEL LAYER BOTTOM EL. =   3.00000     FOR LAYER  15

   MODEL LAYER BOTTOM EL. =   2.75000     FOR LAYER  16

   MODEL LAYER BOTTOM EL. =   2.50000     FOR LAYER  17

   MODEL LAYER BOTTOM EL. =   2.25000     FOR LAYER  18

   MODEL LAYER BOTTOM EL. =   2.00000     FOR LAYER  19

   MODEL LAYER BOTTOM EL. =   1.75000     FOR LAYER  20

   MODEL LAYER BOTTOM EL. =   1.50000     FOR LAYER  21

   MODEL LAYER BOTTOM EL. =   1.25000     FOR LAYER  22

   MODEL LAYER BOTTOM EL. =   1.00000     FOR LAYER  23

   MODEL LAYER BOTTOM EL. =  0.750000     FOR LAYER  24

   MODEL LAYER BOTTOM EL. =  0.500000     FOR LAYER  25

   MODEL LAYER BOTTOM EL. =  0.250000     FOR LAYER  26

   MODEL LAYER BOTTOM EL. =   0.00000     FOR LAYER  27


 STRESS PERIOD     LENGTH       TIME STEPS     MULTIPLIER FOR DELT    SS FLAG
 ----------------------------------------------------------------------------
        1         1.000000          1                    1.000         SS

 STEADY-STATE SIMULATION



 
 # BAS6 package for MODFLOW-2005 generated by Flopy 3.9.1                        
 THE FREE FORMAT OPTION HAS BEEN SELECTED



                     BOUNDARY ARRAY FOR LAYER   1
 READING ON UNIT   13 WITH FORMAT: (50I10)             



                     BOUNDARY ARRAY FOR LAYER   2
 READING ON UNIT   13 WITH FORMAT: (50I10)             



                     BOUNDARY ARRAY FOR LAYER   3
 READING ON UNIT   13 WITH FORMAT: (50I10)             



                     BOUNDARY ARRAY FOR LAYER   4
 READING ON UNIT   13 WITH FORMAT: (50I10)             



                     BOUNDARY ARRAY FOR LAYER   5
 READING ON UNIT   13 WITH FORMAT: (50I10)             



                     BOUNDARY ARRAY FOR LAYER   6
 READING ON UNIT   13 WITH FORMAT: (50I10)             



                     BOUNDARY ARRAY FOR LAYER   7
 READING ON UNIT   13 WITH FORMAT: (50I10)             



                     BOUNDARY ARRAY FOR LAYER   8
 READING ON UNIT   13 WITH FORMAT: (50I10)             



                     BOUNDARY ARRAY FOR LAYER   9
 READING ON UNIT   13 WITH FORMAT: (50I10)             



                     BOUNDARY ARRAY FOR LAYER  10
 READING ON UNIT   13 WITH FORMAT: (50I10)             



                     BOUNDARY ARRAY FOR LAYER  11
 READING ON UNIT   13 WITH FORMAT: (50I10)             



                     BOUNDARY ARRAY FOR LAYER  12
 READING ON UNIT   13 WITH FORMAT: (50I10)             



                     BOUNDARY ARRAY FOR LAYER  13
 READING ON UNIT   13 WITH FORMAT: (50I10)             



                     BOUNDARY ARRAY FOR LAYER  14
 READING ON UNIT   13 WITH FORMAT: (50I10)             



                     BOUNDARY ARRAY FOR LAYER  15
 READING ON UNIT   13 WITH FORMAT: (50I10)             



                     BOUNDARY ARRAY FOR LAYER  16
 READING ON UNIT   13 WITH FORMAT: (50I10)             



                     BOUNDARY ARRAY FOR LAYER  17
 READING ON UNIT   13 WITH FORMAT: (50I10)             



                     BOUNDARY ARRAY FOR LAYER  18
 READING ON UNIT   13 WITH FORMAT: (50I10)             



                     BOUNDARY ARRAY FOR LAYER  19
 READING ON UNIT   13 WITH FORMAT: (50I10)             



                     BOUNDARY ARRAY FOR LAYER  20
 READING ON UNIT   13 WITH FORMAT: (50I10)             



                     BOUNDARY ARRAY FOR LAYER  21
 READING ON UNIT   13 WITH FORMAT: (50I10)             



                     BOUNDARY ARRAY FOR LAYER  22
 READING ON UNIT   13 WITH FORMAT: (50I10)             



                     BOUNDARY ARRAY FOR LAYER  23
 READING ON UNIT   13 WITH FORMAT: (50I10)             



                     BOUNDARY ARRAY FOR LAYER  24
 READING ON UNIT   13 WITH FORMAT: (50I10)             



                     BOUNDARY ARRAY FOR LAYER  25
 READING ON UNIT   13 WITH FORMAT: (50I10)             



                     BOUNDARY ARRAY FOR LAYER  26
 READING ON UNIT   13 WITH FORMAT: (50I10)             



                     BOUNDARY ARRAY FOR LAYER  27
 READING ON UNIT   13 WITH FORMAT: (50I10)             

 AQUIFER HEAD WILL BE SET TO  -999.99     AT ALL NO-FLOW NODES (IBOUND=0).



                       INITIAL HEAD FOR LAYER   1
 READING ON UNIT   13 WITH FORMAT: (50E15.6)           



                       INITIAL HEAD FOR LAYER   2
 READING ON UNIT   13 WITH FORMAT: (50E15.6)           



                       INITIAL HEAD FOR LAYER   3
 READING ON UNIT   13 WITH FORMAT: (50E15.6)           



                       INITIAL HEAD FOR LAYER   4
 READING ON UNIT   13 WITH FORMAT: (50E15.6)           



                       INITIAL HEAD FOR LAYER   5
 READING ON UNIT   13 WITH FORMAT: (50E15.6)           



                       INITIAL HEAD FOR LAYER   6
 READING ON UNIT   13 WITH FORMAT: (50E15.6)           



                       INITIAL HEAD FOR LAYER   7
 READING ON UNIT   13 WITH FORMAT: (50E15.6)           



                       INITIAL HEAD FOR LAYER   8
 READING ON UNIT   13 WITH FORMAT: (50E15.6)           



                       INITIAL HEAD FOR LAYER   9
 READING ON UNIT   13 WITH FORMAT: (50E15.6)           



                       INITIAL HEAD FOR LAYER  10
 READING ON UNIT   13 WITH FORMAT: (50E15.6)           



                       INITIAL HEAD FOR LAYER  11
 READING ON UNIT   13 WITH FORMAT: (50E15.6)           



                       INITIAL HEAD FOR LAYER  12
 READING ON UNIT   13 WITH FORMAT: (50E15.6)           



                       INITIAL HEAD FOR LAYER  13
 READING ON UNIT   13 WITH FORMAT: (50E15.6)           



                       INITIAL HEAD FOR LAYER  14
 READING ON UNIT   13 WITH FORMAT: (50E15.6)           



                       INITIAL HEAD FOR LAYER  15
 READING ON UNIT   13 WITH FORMAT: (50E15.6)           



                       INITIAL HEAD FOR LAYER  16
 READING ON UNIT   13 WITH FORMAT: (50E15.6)           



                       INITIAL HEAD FOR LAYER  17
 READING ON UNIT   13 WITH FORMAT: (50E15.6)           



                       INITIAL HEAD FOR LAYER  18
 READING ON UNIT   13 WITH FORMAT: (50E15.6)           



                       INITIAL HEAD FOR LAYER  19
 READING ON UNIT   13 WITH FORMAT: (50E15.6)           



                       INITIAL HEAD FOR LAYER  20
 READING ON UNIT   13 WITH FORMAT: (50E15.6)           



                       INITIAL HEAD FOR LAYER  21
 READING ON UNIT   13 WITH FORMAT: (50E15.6)           



                       INITIAL HEAD FOR LAYER  22
 READING ON UNIT   13 WITH FORMAT: (50E15.6)           



                       INITIAL HEAD FOR LAYER  23
 READING ON UNIT   13 WITH FORMAT: (50E15.6)           



                       INITIAL HEAD FOR LAYER  24
 READING ON UNIT   13 WITH FORMAT: (50E15.6)           



                       INITIAL HEAD FOR LAYER  25
 READING ON UNIT   13 WITH FORMAT: (50E15.6)           



                       INITIAL HEAD FOR LAYER  26
 READING ON UNIT   13 WITH FORMAT: (50E15.6)           



                       INITIAL HEAD FOR LAYER  27
 READING ON UNIT   13 WITH FORMAT: (50E15.6)           

 DEFAULT OUTPUT CONTROL
 THE FOLLOWING OUTPUT COMES AT THE END OF EACH STRESS PERIOD:
 TOTAL VOLUMETRIC BUDGET
           HEAD

 LPF -- LAYER-PROPERTY FLOW PACKAGE, VERSION 7, 5/2/2005
         INPUT READ FROM UNIT   15
 # LPF package for MODFLOW-2005 generated by Flopy 3.9.1
 HEAD AT CELLS THAT CONVERT TO DRY= -1.00000E+30
 No named parameters

   LAYER FLAGS:
 LAYER       LAYTYP        LAYAVG         CHANI        LAYVKA        LAYWET
 ---------------------------------------------------------------------------
    1             1             0     1.000E+00             0             0
    2             1             0     1.000E+00             0             0
    3             1             0     1.000E+00             0             0
    4             1             0     1.000E+00             0             0
    5             1             0     1.000E+00             0             0
    6             1             0     1.000E+00             0             0
    7             0             0     1.000E+00             0             0
    8             0             0     1.000E+00             0             0
    9             0             0     1.000E+00             0             0
   10             0             0     1.000E+00             0             0
   11             0             0     1.000E+00             0             0
   12             0             0     1.000E+00             0             0
   13             0             0     1.000E+00             0             0
   14             0             0     1.000E+00             0             0
   15             0             0     1.000E+00             0             0
   16             0             0     1.000E+00             0             0
   17             0             0     1.000E+00             0             0
   18             0             0     1.000E+00             0             0
   19             0             0     1.000E+00             0             0
   20             0             0     1.000E+00             0             0
   21             0             0     1.000E+00             0             0
   22             0             0     1.000E+00             0             0
   23             0             0     1.000E+00             0             0
   24             0             0     1.000E+00             0             0
   25             0             0     1.000E+00             0             0
   26             0             0     1.000E+00             0             0
   27             0             0     1.000E+00             0             0

   INTERPRETATION OF LAYER FLAGS:
                        INTERBLOCK     HORIZONTAL    DATA IN
         LAYER TYPE   TRANSMISSIVITY   ANISOTROPY   ARRAY VKA   WETTABILITY
 LAYER      (LAYTYP)      (LAYAVG)       (CHANI)      (LAYVKA)      (LAYWET)
 ---------------------------------------------------------------------------
    1   CONVERTIBLE      HARMONIC     1.000E+00    VERTICAL K  NON-WETTABLE
    2   CONVERTIBLE      HARMONIC     1.000E+00    VERTICAL K  NON-WETTABLE
    3   CONVERTIBLE      HARMONIC     1.000E+00    VERTICAL K  NON-WETTABLE
    4   CONVERTIBLE      HARMONIC     1.000E+00    VERTICAL K  NON-WETTABLE
    5   CONVERTIBLE      HARMONIC     1.000E+00    VERTICAL K  NON-WETTABLE
    6   CONVERTIBLE      HARMONIC     1.000E+00    VERTICAL K  NON-WETTABLE
    7      CONFINED      HARMONIC     1.000E+00    VERTICAL K  NON-WETTABLE
    8      CONFINED      HARMONIC     1.000E+00    VERTICAL K  NON-WETTABLE
    9      CONFINED      HARMONIC     1.000E+00    VERTICAL K  NON-WETTABLE
   10      CONFINED      HARMONIC     1.000E+00    VERTICAL K  NON-WETTABLE
   11      CONFINED      HARMONIC     1.000E+00    VERTICAL K  NON-WETTABLE
   12      CONFINED      HARMONIC     1.000E+00    VERTICAL K  NON-WETTABLE
   13      CONFINED      HARMONIC     1.000E+00    VERTICAL K  NON-WETTABLE
   14      CONFINED      HARMONIC     1.000E+00    VERTICAL K  NON-WETTABLE
   15      CONFINED      HARMONIC     1.000E+00    VERTICAL K  NON-WETTABLE
   16      CONFINED      HARMONIC     1.000E+00    VERTICAL K  NON-WETTABLE
   17      CONFINED      HARMONIC     1.000E+00    VERTICAL K  NON-WETTABLE
   18      CONFINED      HARMONIC     1.000E+00    VERTICAL K  NON-WETTABLE
   19      CONFINED      HARMONIC     1.000E+00    VERTICAL K  NON-WETTABLE
   20      CONFINED      HARMONIC     1.000E+00    VERTICAL K  NON-WETTABLE
   21      CONFINED      HARMONIC     1.000E+00    VERTICAL K  NON-WETTABLE
   22      CONFINED      HARMONIC     1.000E+00    VERTICAL K  NON-WETTABLE
   23      CONFINED      HARMONIC     1.000E+00    VERTICAL K  NON-WETTABLE
   24      CONFINED      HARMONIC     1.000E+00    VERTICAL K  NON-WETTABLE
   25      CONFINED      HARMONIC     1.000E+00    VERTICAL K  NON-WETTABLE
   26      CONFINED      HARMONIC     1.000E+00    VERTICAL K  NON-WETTABLE
   27      CONFINED      HARMONIC     1.000E+00    VERTICAL K  NON-WETTABLE

 WETTING CAPABILITY IS NOT ACTIVE IN ANY LAYER



              HYD. COND. ALONG ROWS FOR LAYER   1
 READING ON UNIT   15 WITH FORMAT: (50E15.6)           



                VERTICAL HYD. COND. FOR LAYER   1
 READING ON UNIT   15 WITH FORMAT: (50E15.6)           



              HYD. COND. ALONG ROWS FOR LAYER   2
 READING ON UNIT   15 WITH FORMAT: (50E15.6)           



                VERTICAL HYD. COND. FOR LAYER   2
 READING ON UNIT   15 WITH FORMAT: (50E15.6)           



              HYD. COND. ALONG ROWS FOR LAYER   3
 READING ON UNIT   15 WITH FORMAT: (50E15.6)           



                VERTICAL HYD. COND. FOR LAYER   3
 READING ON UNIT   15 WITH FORMAT: (50E15.6)           



              HYD. COND. ALONG ROWS FOR LAYER   4
 READING ON UNIT   15 WITH FORMAT: (50E15.6)           



                VERTICAL HYD. COND. FOR LAYER   4
 READING ON UNIT   15 WITH FORMAT: (50E15.6)           



              HYD. COND. ALONG ROWS FOR LAYER   5
 READING ON UNIT   15 WITH FORMAT: (50E15.6)           



                VERTICAL HYD. COND. FOR LAYER   5
 READING ON UNIT   15 WITH FORMAT: (50E15.6)           



              HYD. COND. ALONG ROWS FOR LAYER   6
 READING ON UNIT   15 WITH FORMAT: (50E15.6)           



                VERTICAL HYD. COND. FOR LAYER   6
 READING ON UNIT   15 WITH FORMAT: (50E15.6)           



              HYD. COND. ALONG ROWS FOR LAYER   7
 READING ON UNIT   15 WITH FORMAT: (50E15.6)           



                VERTICAL HYD. COND. FOR LAYER   7
 READING ON UNIT   15 WITH FORMAT: (50E15.6)           



              HYD. COND. ALONG ROWS FOR LAYER   8
 READING ON UNIT   15 WITH FORMAT: (50E15.6)           



                VERTICAL HYD. COND. FOR LAYER   8
 READING ON UNIT   15 WITH FORMAT: (50E15.6)           



              HYD. COND. ALONG ROWS FOR LAYER   9
 READING ON UNIT   15 WITH FORMAT: (50E15.6)           



                VERTICAL HYD. COND. FOR LAYER   9
 READING ON UNIT   15 WITH FORMAT: (50E15.6)           



              HYD. COND. ALONG ROWS FOR LAYER  10
 READING ON UNIT   15 WITH FORMAT: (50E15.6)           



                VERTICAL HYD. COND. FOR LAYER  10
 READING ON UNIT   15 WITH FORMAT: (50E15.6)           



              HYD. COND. ALONG ROWS FOR LAYER  11
 READING ON UNIT   15 WITH FORMAT: (50E15.6)           



                VERTICAL HYD. COND. FOR LAYER  11
 READING ON UNIT   15 WITH FORMAT: (50E15.6)           



              HYD. COND. ALONG ROWS FOR LAYER  12
 READING ON UNIT   15 WITH FORMAT: (50E15.6)           



                VERTICAL HYD. COND. FOR LAYER  12
 READING ON UNIT   15 WITH FORMAT: (50E15.6)           



              HYD. COND. ALONG ROWS FOR LAYER  13
 READING ON UNIT   15 WITH FORMAT: (50E15.6)           



                VERTICAL HYD. COND. FOR LAYER  13
 READING ON UNIT   15 WITH FORMAT: (50E15.6)           



              HYD. COND. ALONG ROWS FOR LAYER  14
 READING ON UNIT   15 WITH FORMAT: (50E15.6)           



                VERTICAL HYD. COND. FOR LAYER  14
 READING ON UNIT   15 WITH FORMAT: (50E15.6)           



              HYD. COND. ALONG ROWS FOR LAYER  15
 READING ON UNIT   15 WITH FORMAT: (50E15.6)           



                VERTICAL HYD. COND. FOR LAYER  15
 READING ON UNIT   15 WITH FORMAT: (50E15.6)           



              HYD. COND. ALONG ROWS FOR LAYER  16
 READING ON UNIT   15 WITH FORMAT: (50E15.6)           



                VERTICAL HYD. COND. FOR LAYER  16
 READING ON UNIT   15 WITH FORMAT: (50E15.6)           



              HYD. COND. ALONG ROWS FOR LAYER  17
 READING ON UNIT   15 WITH FORMAT: (50E15.6)           



                VERTICAL HYD. COND. FOR LAYER  17
 READING ON UNIT   15 WITH FORMAT: (50E15.6)           



              HYD. COND. ALONG ROWS FOR LAYER  18
 READING ON UNIT   15 WITH FORMAT: (50E15.6)           



                VERTICAL HYD. COND. FOR LAYER  18
 READING ON UNIT   15 WITH FORMAT: (50E15.6)           



              HYD. COND. ALONG ROWS FOR LAYER  19
 READING ON UNIT   15 WITH FORMAT: (50E15.6)           



                VERTICAL HYD. COND. FOR LAYER  19
 READING ON UNIT   15 WITH FORMAT: (50E15.6)           



              HYD. COND. ALONG ROWS FOR LAYER  20
 READING ON UNIT   15 WITH FORMAT: (50E15.6)           



                VERTICAL HYD. COND. FOR LAYER  20
 READING ON UNIT   15 WITH FORMAT: (50E15.6)           



              HYD. COND. ALONG ROWS FOR LAYER  21
 READING ON UNIT   15 WITH FORMAT: (50E15.6)           



                VERTICAL HYD. COND. FOR LAYER  21
 READING ON UNIT   15 WITH FORMAT: (50E15.6)           



              HYD. COND. ALONG ROWS FOR LAYER  22
 READING ON UNIT   15 WITH FORMAT: (50E15.6)           



                VERTICAL HYD. COND. FOR LAYER  22
 READING ON UNIT   15 WITH FORMAT: (50E15.6)           



              HYD. COND. ALONG ROWS FOR LAYER  23
 READING ON UNIT   15 WITH FORMAT: (50E15.6)           



                VERTICAL HYD. COND. FOR LAYER  23
 READING ON UNIT   15 WITH FORMAT: (50E15.6)           



              HYD. COND. ALONG ROWS FOR LAYER  24
 READING ON UNIT   15 WITH FORMAT: (50E15.6)           



                VERTICAL HYD. COND. FOR LAYER  24
 READING ON UNIT   15 WITH FORMAT: (50E15.6)           



              HYD. COND. ALONG ROWS FOR LAYER  25
 READING ON UNIT   15 WITH FORMAT: (50E15.6)           



                VERTICAL HYD. COND. FOR LAYER  25
 READING ON UNIT   15 WITH FORMAT: (50E15.6)           



              HYD. COND. ALONG ROWS FOR LAYER  26
 READING ON UNIT   15 WITH FORMAT: (50E15.6)           



                VERTICAL HYD. COND. FOR LAYER  26
 READING ON UNIT   15 WITH FORMAT: (50E15.6)           



              HYD. COND. ALONG ROWS FOR LAYER  27
 READING ON UNIT   15 WITH FORMAT: (50E15.6)           



                VERTICAL HYD. COND. FOR LAYER  27
 READING ON UNIT   15 WITH FORMAT: (50E15.6)           

 RCH -- RECHARGE PACKAGE, VERSION 7, 5/2/2005 INPUT READ FROM UNIT   19
 # RCH package for MODFLOW-2005 generated by Flopy 3.9.1
 No named parameters
 OPTION 3 -- RECHARGE TO HIGHEST ACTIVE NODE IN EACH VERTICAL COLUMN


     0 Recharge parameters

 PCG -- CONJUGATE-GRADIENT SOLUTION PACKAGE, VERSION 7, 5/2/2005
 # PCG package for MODFLOW-2005 generated by Flopy 3.9.1
 MAXIMUM OF     50 CALLS OF SOLUTION ROUTINE
 MAXIMUM OF     30 INTERNAL ITERATIONS PER CALL TO SOLUTION ROUTINE
 MATRIX PRECONDITIONING TYPE :    1



                                    SOLUTION BY THE CONJUGATE-GRADIENT METHOD
                                   -------------------------------------------
                    MAXIMUM NUMBER OF CALLS TO PCG ROUTINE =       50
                        MAXIMUM ITERATIONS PER CALL TO PCG =       30
                               MATRIX PRECONDITIONING TYPE =        1
        RELAXATION FACTOR (ONLY USED WITH PRECOND. TYPE 1) =    0.10000E+01
 PARAMETER OF POLYNOMIAL PRECOND. = 2 (2) OR IS CALCULATED :        0
                         HEAD CHANGE CRITERION FOR CLOSURE =    0.10000E-04
                     RESIDUAL CHANGE CRITERION FOR CLOSURE =    0.10000E-04
            PCG HEAD AND RESIDUAL CHANGE PRINTOUT INTERVAL =      999
     PRINTING FROM SOLVER IS LIMITED(1) OR SUPPRESSED (>1) =        3
                            STEADY-STATE DAMPING PARAMETER =    0.10000E+01
                               TRANSIENT DAMPING PARAMETER =    0.10000E+01
1
                            STRESS PERIOD NO.    1, LENGTH =   1.000000    
                            -----------------------------------------------

                              NUMBER OF TIME STEPS =     1

                               MULTIPLIER FOR DELT =     1.000

                            INITIAL TIME STEP SIZE =   1.000000    

                 RECHARGE =  2.739726E-04
 
 SOLVING FOR HEAD 


 ***Link-MT3DMS Package v7***
 OPENING LINK-MT3DMS OUTPUT FILE: mt3d_link.ftl                                                                                                                                                                                           
 ON UNIT NUMBER:    54
 FILE TYPE: UNFORMATTED
 HEADER OPTION: EXTENDED
 ***Link-MT3DMS Package v7***


 SAVING SATURATED THICKNESS AND FLOW TERMS ON UNIT   54 FOR MT3DMS
 BY THE LINK-MT3DMS PACKAGE V7 AT TIME STEP    1, STRESS PERIOD    1

1
              HEAD IN LAYER   1 AT END OF TIME STEP   1 IN STRESS PERIOD    1
  ---------------------------------------------------------------------------

            1           2           3           4           5           6           7           8           9          10
           11          12          13          14          15          16          17          18          19          20
           21          22          23          24          25          26          27          28          29          30
           31          32          33          34          35          36          37          38          39          40
           41          42          43          44          45          46          47          48          49          50
 ........................................................................................................................
   1    6.665       6.665       6.664       6.663       6.662       6.660       6.658       6.656       6.653       6.650    
        6.646       6.642       6.638       6.633       6.628       6.623       6.617       6.611       6.605       6.598    
        6.591       6.583       6.575       6.563       6.520      -1000.      -1000.      -1000.      -1000.      -1000.    
       -1000.      -1000.      -1000.      -1000.      -1000.      -1000.      -1000.      -1000.      -1000.      -1000.    
       -1000.      -1000.      -1000.      -1000.      -1000.      -1000.      -1000.      -1000.      -1000.      -1000.    
1
              HEAD IN LAYER   2 AT END OF TIME STEP   1 IN STRESS PERIOD    1
  ---------------------------------------------------------------------------

            1           2           3           4           5           6           7           8           9          10
           11          12          13          14          15          16          17          18          19          20
           21          22          23          24          25          26          27          28          29          30
           31          32          33          34          35          36          37          38          39          40
           41          42          43          44          45          46          47          48          49          50
 ........................................................................................................................
   1    6.665       6.665       6.664       6.663       6.662       6.660       6.658       6.655       6.653       6.649    
        6.646       6.642       6.638       6.633       6.628       6.623       6.617       6.611       6.605       6.598    
        6.591       6.583       6.575       6.563       6.519       6.459       6.395       6.328       6.257      -1000.    
       -1000.      -1000.      -1000.      -1000.      -1000.      -1000.      -1000.      -1000.      -1000.      -1000.    
       -1000.      -1000.      -1000.      -1000.      -1000.      -1000.      -1000.      -1000.      -1000.      -1000.    
1
              HEAD IN LAYER   3 AT END OF TIME STEP   1 IN STRESS PERIOD    1
  ---------------------------------------------------------------------------

            1           2           3           4           5           6           7           8           9          10
           11          12          13          14          15          16          17          18          19          20
           21          22          23          24          25          26          27          28          29          30
           31          32          33          34          35          36          37          38          39          40
           41          42          43          44          45          46          47          48          49          50
 ........................................................................................................................
   1    6.665       6.665       6.664       6.663       6.662       6.660       6.658       6.655       6.652       6.649    
        6.646       6.642       6.638       6.633       6.628       6.623       6.617       6.611       6.604       6.598    
        6.591       6.583       6.575       6.563       6.519       6.459       6.395       6.328       6.257       6.183    
        6.106       6.024      -1000.      -1000.      -1000.      -1000.      -1000.      -1000.      -1000.      -1000.    
       -1000.      -1000.      -1000.      -1000.      -1000.      -1000.      -1000.      -1000.      -1000.      -1000.    
1
              HEAD IN LAYER   4 AT END OF TIME STEP   1 IN STRESS PERIOD    1
  ---------------------------------------------------------------------------

            1           2           3           4           5           6           7           8           9          10
           11          12          13          14          15          16          17          18          19          20
           21          22          23          24          25          26          27          28          29          30
           31          32          33          34          35          36          37          38          39          40
           41          42          43          44          45          46          47          48          49          50
 ........................................................................................................................
   1    6.665       6.665       6.664       6.663       6.662       6.660       6.658       6.655       6.652       6.649    
        6.646       6.642       6.637       6.633       6.628       6.622       6.617       6.611       6.604       6.598    
        6.590       6.583       6.575       6.563       6.519       6.459       6.395       6.328       6.257       6.183    
        6.106       6.024       5.939       5.850       5.757      -1000.      -1000.      -1000.      -1000.      -1000.    
       -1000.      -1000.      -1000.      -1000.      -1000.      -1000.      -1000.      -1000.      -1000.      -1000.    
1
              HEAD IN LAYER   5 AT END OF TIME STEP   1 IN STRESS PERIOD    1
  ---------------------------------------------------------------------------

            1           2           3           4           5           6           7           8           9          10
           11          12          13          14          15          16          17          18          19          20
           21          22          23          24          25          26          27          28          29          30
           31          32          33          34          35          36          37          38          39          40
           41          42          43          44          45          46          47          48          49          50
 ........................................................................................................................
   1    6.665       6.665       6.664       6.663       6.661       6.660       6.657       6.655       6.652       6.649    
        6.645       6.641       6.637       6.633       6.628       6.622       6.617       6.611       6.604       6.597    
        6.590       6.583       6.575       6.563       6.519       6.459       6.395       6.328       6.257       6.183    
        6.105       6.024       5.939       5.850       5.756       5.660       5.583       5.566       5.553       5.538    
        5.524       5.509      -1000.      -1000.      -1000.      -1000.      -1000.      -1000.      -1000.      -1000.    
1
              HEAD IN LAYER   6 AT END OF TIME STEP   1 IN STRESS PERIOD    1
  ---------------------------------------------------------------------------

            1           2           3           4           5           6           7           8           9          10
           11          12          13          14          15          16          17          18          19          20
           21          22          23          24          25          26          27          28          29          30
           31          32          33          34          35          36          37          38          39          40
           41          42          43          44          45          46          47          48          49          50
 ........................................................................................................................
   1    6.665       6.664       6.664       6.663       6.661       6.659       6.657       6.655       6.652       6.649    
        6.645       6.641       6.637       6.632       6.627       6.622       6.616       6.610       6.604       6.597    
        6.590       6.583       6.575       6.564       6.519       6.459       6.395       6.327       6.256       6.183    
        6.105       6.024       5.939       5.850       5.756       5.659       5.583       5.566       5.552       5.538    
        5.524       5.509       5.493       5.478       5.462       5.445       5.428       5.411       5.394       5.375    
1
              HEAD IN LAYER   7 AT END OF TIME STEP   1 IN STRESS PERIOD    1
  ---------------------------------------------------------------------------

            1           2           3           4           5           6           7           8           9          10
           11          12          13          14          15          16          17          18          19          20
           21          22          23          24          25          26          27          28          29          30
           31          32          33          34          35          36          37          38          39          40
           41          42          43          44          45          46          47          48          49          50
 ........................................................................................................................
   1    6.665       6.664       6.664       6.662       6.661       6.659       6.657       6.655       6.652       6.649    
        6.645       6.641       6.637       6.632       6.627       6.622       6.616       6.610       6.604       6.597    
        6.590       6.583       6.574       6.564       6.519       6.459       6.395       6.327       6.256       6.182    
        6.105       6.024       5.939       5.850       5.756       5.659       5.582       5.566       5.552       5.538    
        5.524       5.509       5.493       5.478       5.462       5.445       5.428       5.411       5.394       5.375    
1
              HEAD IN LAYER   8 AT END OF TIME STEP   1 IN STRESS PERIOD    1
  ---------------------------------------------------------------------------

            1           2           3           4           5           6           7           8           9          10
           11          12          13          14          15          16          17          18          19          20
           21          22          23          24          25          26          27          28          29          30
           31          32          33          34          35          36          37          38          39          40
           41          42          43          44          45          46          47          48          49          50
 ........................................................................................................................
   1    6.664       6.664       6.663       6.662       6.661       6.659       6.657       6.654       6.652       6.648    
        6.645       6.641       6.637       6.632       6.627       6.622       6.616       6.610       6.604       6.597    
        6.590       6.582       6.574       6.564       6.519       6.459       6.394       6.327       6.256       6.182    
        6.105       6.023       5.938       5.849       5.756       5.659       5.582       5.566       5.552       5.538    
        5.523       5.508       5.493       5.477       5.461       5.445       5.428       5.411       5.393       5.375    
1
              HEAD IN LAYER   9 AT END OF TIME STEP   1 IN STRESS PERIOD    1
  ---------------------------------------------------------------------------

            1           2           3           4           5           6           7           8           9          10
           11          12          13          14          15          16          17          18          19          20
           21          22          23          24          25          26          27          28          29          30
           31          32          33          34          35          36          37          38          39          40
           41          42          43          44          45          46          47          48          49          50
 ........................................................................................................................
   1    6.664       6.664       6.663       6.662       6.661       6.659       6.657       6.654       6.652       6.648    
        6.645       6.641       6.637       6.632       6.627       6.622       6.616       6.610       6.604       6.597    
        6.590       6.582       6.574       6.565       6.519       6.458       6.394       6.327       6.256       6.182    
        6.105       6.023       5.938       5.849       5.756       5.658       5.581       5.566       5.552       5.538    
        5.523       5.508       5.493       5.477       5.461       5.445       5.428       5.411       5.393       5.375    
1
              HEAD IN LAYER  10 AT END OF TIME STEP   1 IN STRESS PERIOD    1
  ---------------------------------------------------------------------------

            1           2           3           4           5           6           7           8           9          10
           11          12          13          14          15          16          17          18          19          20
           21          22          23          24          25          26          27          28          29          30
           31          32          33          34          35          36          37          38          39          40
           41          42          43          44          45          46          47          48          49          50
 ........................................................................................................................
   1    6.664       6.664       6.663       6.662       6.661       6.659       6.657       6.654       6.651       6.648    
        6.645       6.641       6.636       6.632       6.627       6.622       6.616       6.610       6.603       6.597    
        6.590       6.582       6.574       6.565       6.519       6.458       6.394       6.327       6.256       6.182    
        6.104       6.023       5.938       5.849       5.755       5.658       5.580       5.566       5.552       5.538    
        5.523       5.508       5.493       5.477       5.461       5.445       5.428       5.411       5.393       5.375    
1
              HEAD IN LAYER  11 AT END OF TIME STEP   1 IN STRESS PERIOD    1
  ---------------------------------------------------------------------------

            1           2           3           4           5           6           7           8           9          10
           11          12          13          14          15          16          17          18          19          20
           21          22          23          24          25          26          27          28          29          30
           31          32          33          34          35          36          37          38          39          40
           41          42          43          44          45          46          47          48          49          50
 ........................................................................................................................
   1    6.664       6.664       6.663       6.662       6.660       6.659       6.657       6.654       6.651       6.648    
        6.644       6.641       6.636       6.632       6.627       6.621       6.616       6.610       6.603       6.596    
        6.589       6.582       6.574       6.566       6.520       6.458       6.394       6.327       6.256       6.182    
        6.104       6.023       5.938       5.849       5.755       5.657       5.579       5.565       5.552       5.537    
        5.523       5.508       5.493       5.477       5.461       5.444       5.428       5.411       5.393       5.375    
1
              HEAD IN LAYER  12 AT END OF TIME STEP   1 IN STRESS PERIOD    1
  ---------------------------------------------------------------------------

            1           2           3           4           5           6           7           8           9          10
           11          12          13          14          15          16          17          18          19          20
           21          22          23          24          25          26          27          28          29          30
           31          32          33          34          35          36          37          38          39          40
           41          42          43          44          45          46          47          48          49          50
 ........................................................................................................................
   1    6.664       6.664       6.663       6.662       6.660       6.659       6.656       6.654       6.651       6.648    
        6.644       6.640       6.636       6.632       6.627       6.621       6.616       6.610       6.603       6.596    
        6.589       6.582       6.574       6.566       6.520       6.458       6.394       6.326       6.256       6.182    
        6.104       6.023       5.938       5.849       5.755       5.657       5.579       5.565       5.552       5.537    
        5.523       5.508       5.493       5.477       5.461       5.444       5.428       5.410       5.393       5.375    
1
              HEAD IN LAYER  13 AT END OF TIME STEP   1 IN STRESS PERIOD    1
  ---------------------------------------------------------------------------

            1           2           3           4           5           6           7           8           9          10
           11          12          13          14          15          16          17          18          19          20
           21          22          23          24          25          26          27          28          29          30
           31          32          33          34          35          36          37          38          39          40
           41          42          43          44          45          46          47          48          49          50
 ........................................................................................................................
   1    6.664       6.664       6.663       6.662       6.660       6.659       6.656       6.654       6.651       6.648    
        6.644       6.640       6.636       6.632       6.627       6.621       6.616       6.610       6.603       6.596    
        6.589       6.582       6.574       6.566       6.520       6.458       6.394       6.326       6.255       6.181    
        6.104       6.023       5.937       5.849       5.755       5.656       5.579       5.565       5.552       5.537    
        5.523       5.508       5.493       5.477       5.461       5.444       5.428       5.410       5.393       5.375    
1
              HEAD IN LAYER  14 AT END OF TIME STEP   1 IN STRESS PERIOD    1
  ---------------------------------------------------------------------------

            1           2           3           4           5           6           7           8           9          10
           11          12          13          14          15          16          17          18          19          20
           21          22          23          24          25          26          27          28          29          30
           31          32          33          34          35          36          37          38          39          40
           41          42          43          44          45          46          47          48          49          50
 ........................................................................................................................
   1    6.664       6.664       6.663       6.662       6.660       6.659       6.656       6.654       6.651       6.648    
        6.644       6.640       6.636       6.632       6.627       6.621       6.616       6.610       6.603       6.596    
        6.589       6.582       6.574       6.566       6.520       6.458       6.394       6.326       6.255       6.181    
        6.104       6.022       5.937       5.848       5.755       5.656       5.579       5.565       5.552       5.537    
        5.523       5.508       5.493       5.477       5.461       5.444       5.428       5.410       5.393       5.375    
1
              HEAD IN LAYER  15 AT END OF TIME STEP   1 IN STRESS PERIOD    1
  ---------------------------------------------------------------------------

            1           2           3           4           5           6           7           8           9          10
           11          12          13          14          15          16          17          18          19          20
           21          22          23          24          25          26          27          28          29          30
           31          32          33          34          35          36          37          38          39          40
           41          42          43          44          45          46          47          48          49          50
 ........................................................................................................................
   1    6.664       6.664       6.663       6.662       6.660       6.659       6.656       6.654       6.651       6.648    
        6.644       6.640       6.636       6.632       6.627       6.621       6.616       6.610       6.603       6.596    
        6.589       6.582       6.574       6.566       6.520       6.458       6.394       6.326       6.255       6.181    
        6.104       6.022       5.937       5.848       5.755       5.656       5.579       5.565       5.552       5.537    
        5.523       5.508       5.493       5.477       5.461       5.444       5.428       5.410       5.393       5.375    
1
              HEAD IN LAYER  16 AT END OF TIME STEP   1 IN STRESS PERIOD    1
  ---------------------------------------------------------------------------

            1           2           3           4           5           6           7           8           9          10
           11          12          13          14          15          16          17          18          19          20
           21          22          23          24          25          26          27          28          29          30
           31          32          33          34          35          36          37          38          39          40
           41          42          43          44          45          46          47          48          49          50
 ........................................................................................................................
   1    6.664       6.664       6.663       6.662       6.660       6.659       6.656       6.654       6.651       6.648    
        6.644       6.640       6.636       6.632       6.627       6.621       6.616       6.610       6.603       6.596    
        6.589       6.582       6.574       6.566       6.520       6.458       6.393       6.326       6.255       6.181    
        6.104       6.022       5.937       5.848       5.755       5.656       5.579       5.565       5.552       5.537    
        5.523       5.508       5.493       5.477       5.461       5.444       5.428       5.410       5.393       5.375    
1
              HEAD IN LAYER  17 AT END OF TIME STEP   1 IN STRESS PERIOD    1
  ---------------------------------------------------------------------------

            1           2           3           4           5           6           7           8           9          10
           11          12          13          14          15          16          17          18          19          20
           21          22          23          24          25          26          27          28          29          30
           31          32          33          34          35          36          37          38          39          40
           41          42          43          44          45          46          47          48          49          50
 ........................................................................................................................
   1    6.664       6.664       6.663       6.662       6.660       6.659       6.656       6.654       6.651       6.648    
        6.644       6.640       6.636       6.632       6.627       6.621       6.616       6.610       6.603       6.596    
        6.589       6.582       6.574       6.566       6.520       6.458       6.393       6.326       6.255       6.181    
        6.103       6.022       5.937       5.848       5.754       5.656       5.579       5.565       5.552       5.537    
        5.523       5.508       5.493       5.477       5.461       5.444       5.428       5.410       5.393       5.375    
1
              HEAD IN LAYER  18 AT END OF TIME STEP   1 IN STRESS PERIOD    1
  ---------------------------------------------------------------------------

            1           2           3           4           5           6           7           8           9          10
           11          12          13          14          15          16          17          18          19          20
           21          22          23          24          25          26          27          28          29          30
           31          32          33          34          35          36          37          38          39          40
           41          42          43          44          45          46          47          48          49          50
 ........................................................................................................................
   1    6.664       6.664       6.663       6.662       6.660       6.659       6.656       6.654       6.651       6.648    
        6.644       6.640       6.636       6.632       6.627       6.621       6.616       6.610       6.603       6.596    
        6.589       6.582       6.574       6.566       6.520       6.458       6.393       6.326       6.255       6.181    
        6.103       6.022       5.937       5.848       5.754       5.656       5.579       5.565       5.552       5.537    
        5.523       5.508       5.493       5.477       5.461       5.444       5.428       5.410       5.393       5.375    
1
              HEAD IN LAYER  19 AT END OF TIME STEP   1 IN STRESS PERIOD    1
  ---------------------------------------------------------------------------

            1           2           3           4           5           6           7           8           9          10
           11          12          13          14          15          16          17          18          19          20
           21          22          23          24          25          26          27          28          29          30
           31          32          33          34          35          36          37          38          39          40
           41          42          43          44          45          46          47          48          49          50
 ........................................................................................................................
   1    6.664       6.664       6.663       6.662       6.660       6.659       6.656       6.654       6.651       6.648    
        6.644       6.640       6.636       6.632       6.627       6.621       6.616       6.610       6.603       6.596    
        6.589       6.582       6.574       6.566       6.519       6.457       6.393       6.326       6.255       6.181    
        6.103       6.022       5.937       5.848       5.754       5.656       5.579       5.565       5.552       5.537    
        5.523       5.508       5.493       5.477       5.461       5.444       5.428       5.410       5.393       5.375    
1
              HEAD IN LAYER  20 AT END OF TIME STEP   1 IN STRESS PERIOD    1
  ---------------------------------------------------------------------------

            1           2           3           4           5           6           7           8           9          10
           11          12          13          14          15          16          17          18          19          20
           21          22          23          24          25          26          27          28          29          30
           31          32          33          34          35          36          37          38          39          40
           41          42          43          44          45          46          47          48          49          50
 ........................................................................................................................
   1    6.664       6.664       6.663       6.662       6.660       6.659       6.656       6.654       6.651       6.648    
        6.644       6.640       6.636       6.632       6.627       6.621       6.616       6.610       6.603       6.596    
        6.589       6.582       6.574       6.566       6.519       6.457       6.393       6.326       6.255       6.181    
        6.103       6.022       5.937       5.848       5.754       5.657       5.579       5.565       5.552       5.537    
        5.523       5.508       5.493       5.477       5.461       5.444       5.428       5.410       5.393       5.375    
1
              HEAD IN LAYER  21 AT END OF TIME STEP   1 IN STRESS PERIOD    1
  ---------------------------------------------------------------------------

            1           2           3           4           5           6           7           8           9          10
           11          12          13          14          15          16          17          18          19          20
           21          22          23          24          25          26          27          28          29          30
           31          32          33          34          35          36          37          38          39          40
           41          42          43          44          45          46          47          48          49          50
 ........................................................................................................................
   1    6.664       6.664       6.663       6.662       6.660       6.659       6.656       6.654       6.651       6.648    
        6.644       6.640       6.636       6.632       6.627       6.621       6.616       6.610       6.603       6.596    
        6.589       6.582       6.574       6.565       6.519       6.457       6.393       6.326       6.255       6.181    
        6.103       6.022       5.937       5.848       5.754       5.657       5.580       5.565       5.552       5.537    
        5.523       5.508       5.493       5.477       5.461       5.444       5.428       5.410       5.393       5.375    
1
              HEAD IN LAYER  22 AT END OF TIME STEP   1 IN STRESS PERIOD    1
  ---------------------------------------------------------------------------

            1           2           3           4           5           6           7           8           9          10
           11          12          13          14          15          16          17          18          19          20
           21          22          23          24          25          26          27          28          29          30
           31          32          33          34          35          36          37          38          39          40
           41          42          43          44          45          46          47          48          49          50
 ........................................................................................................................
   1    6.664       6.664       6.663       6.662       6.660       6.659       6.656       6.654       6.651       6.648    
        6.644       6.640       6.636       6.632       6.627       6.621       6.616       6.610       6.603       6.596    
        6.589       6.582       6.574       6.565       6.519       6.457       6.393       6.326       6.255       6.181    
        6.103       6.022       5.937       5.848       5.754       5.657       5.581       5.565       5.552       5.537    
        5.523       5.508       5.493       5.477       5.461       5.444       5.428       5.410       5.393       5.375    
1
              HEAD IN LAYER  23 AT END OF TIME STEP   1 IN STRESS PERIOD    1
  ---------------------------------------------------------------------------

            1           2           3           4           5           6           7           8           9          10
           11          12          13          14          15          16          17          18          19          20
           21          22          23          24          25          26          27          28          29          30
           31          32          33          34          35          36          37          38          39          40
           41          42          43          44          45          46          47          48          49          50
 ........................................................................................................................
   1    6.664       6.664       6.663       6.662       6.660       6.659       6.656       6.654       6.651       6.648    
        6.644       6.640       6.636       6.632       6.627       6.621       6.616       6.610       6.603       6.596    
        6.589       6.582       6.574       6.564       6.518       6.457       6.393       6.326       6.255       6.181    
        6.103       6.022       5.937       5.848       5.754       5.658       5.582       5.566       5.552       5.537    
        5.523       5.508       5.492       5.477       5.461       5.444       5.428       5.410       5.393       5.375    
1
              HEAD IN LAYER  24 AT END OF TIME STEP   1 IN STRESS PERIOD    1
  ---------------------------------------------------------------------------

            1           2           3           4           5           6           7           8           9          10
           11          12          13          14          15          16          17          18          19          20
           21          22          23          24          25          26          27          28          29          30
           31          32          33          34          35          36          37          38          39          40
           41          42          43          44          45          46          47          48          49          50
 ........................................................................................................................
   1    6.664       6.664       6.663       6.662       6.660       6.659       6.656       6.654       6.651       6.648    
        6.644       6.640       6.636       6.632       6.627       6.621       6.616       6.610       6.603       6.596    
        6.589       6.582       6.574       6.564       6.518       6.457       6.393       6.326       6.255       6.181    
        6.103       6.022       5.937       5.847       5.754       5.658       5.582       5.566       5.552       5.537    
        5.523       5.508       5.492       5.477       5.461       5.444       5.428       5.410       5.393       5.375    
1
              HEAD IN LAYER  25 AT END OF TIME STEP   1 IN STRESS PERIOD    1
  ---------------------------------------------------------------------------

            1           2           3           4           5           6           7           8           9          10
           11          12          13          14          15          16          17          18          19          20
           21          22          23          24          25          26          27          28          29          30
           31          32          33          34          35          36          37          38          39          40
           41          42          43          44          45          46          47          48          49          50
 ........................................................................................................................
   1    6.664       6.663       6.663       6.662       6.660       6.659       6.656       6.654       6.651       6.648    
        6.644       6.640       6.636       6.632       6.627       6.621       6.616       6.610       6.603       6.596    
        6.589       6.582       6.574       6.563       6.518       6.457       6.393       6.325       6.255       6.181    
        6.103       6.022       5.936       5.847       5.754       5.658       5.583       5.566       5.552       5.537    
        5.523       5.508       5.492       5.477       5.461       5.444       5.428       5.410       5.393       5.375    
1
              HEAD IN LAYER  26 AT END OF TIME STEP   1 IN STRESS PERIOD    1
  ---------------------------------------------------------------------------

            1           2           3           4           5           6           7           8           9          10
           11          12          13          14          15          16          17          18          19          20
           21          22          23          24          25          26          27          28          29          30
           31          32          33          34          35          36          37          38          39          40
           41          42          43          44          45          46          47          48          49          50
 ........................................................................................................................
   1    6.664       6.663       6.663       6.662       6.660       6.659       6.656       6.654       6.651       6.648    
        6.644       6.640       6.636       6.632       6.627       6.621       6.616       6.610       6.603       6.596    
        6.589       6.582       6.574       6.563       6.518       6.457       6.393       6.325       6.255       6.181    
        6.103       6.022       5.936       5.847       5.754       5.658       5.583       5.566       5.552       5.537    
        5.523       5.508       5.492       5.477       5.461       5.444       5.428       5.410       5.393       5.375    
1
              HEAD IN LAYER  27 AT END OF TIME STEP   1 IN STRESS PERIOD    1
  ---------------------------------------------------------------------------

            1           2           3           4           5           6           7           8           9          10
           11          12          13          14          15          16          17          18          19          20
           21          22          23          24          25          26          27          28          29          30
           31          32          33          34          35          36          37          38          39          40
           41          42          43          44          45          46          47          48          49          50
 ........................................................................................................................
   1    6.664       6.663       6.663       6.662       6.660       6.659       6.656       6.654       6.651       6.648    
        6.644       6.640       6.636       6.632       6.627       6.621       6.616       6.610       6.603       6.596    
        6.589       6.582       6.574       6.563       6.518       6.457       6.393       6.325       6.255       6.181    
        6.103       6.022       5.936       5.847       5.754       5.658       5.583       5.566       5.552       5.537    
        5.523       5.508       5.492       5.477       5.461       5.444       5.428       5.410       5.393       5.375    
1
  VOLUMETRIC BUDGET FOR ENTIRE MODEL AT END OF TIME STEP  1 IN STRESS PERIOD   1
  ------------------------------------------------------------------------------

     CUMULATIVE VOLUMES      L**3       RATES FOR THIS TIME STEP      L**3/T
     ------------------                 ------------------------

           IN:                                      IN:
           ---                                      ---
             STORAGE =           0.0000               STORAGE =           0.0000
       CONSTANT HEAD =           0.0000         CONSTANT HEAD =           0.0000
            RECHARGE =       6.7123E-02              RECHARGE =       6.7123E-02

            TOTAL IN =       6.7123E-02              TOTAL IN =       6.7123E-02

          OUT:                                     OUT:
          ----                                     ----
             STORAGE =           0.0000               STORAGE =           0.0000
       CONSTANT HEAD =       6.7123E-02         CONSTANT HEAD =       6.7123E-02
            RECHARGE =           0.0000              RECHARGE =           0.0000

           TOTAL OUT =       6.7123E-02             TOTAL OUT =       6.7123E-02

            IN - OUT =       7.4506E-08              IN - OUT =       7.4506E-08

 PERCENT DISCREPANCY =           0.00     PERCENT DISCREPANCY =           0.00






          TIME SUMMARY AT END OF TIME STEP   1 IN STRESS PERIOD    1
                    SECONDS     MINUTES      HOURS       DAYS        YEARS
                    -----------------------------------------------------------
   TIME STEP LENGTH  86400.      1440.0      24.000      1.0000     2.73785E-03
 STRESS PERIOD TIME  86400.      1440.0      24.000      1.0000     2.73785E-03
         TOTAL TIME  86400.      1440.0      24.000      1.0000     2.73785E-03
1

 Run end date and time (yyyy/mm/dd hh:mm:ss): 2025/02/27 14:36:51
 Elapsed run time:  0.047 Seconds

