 LISTING FILE: linear_pulse_mt.list
                         UNIT  16

 OPENING mt3d_link.ftl
 FILE TYPE:FTL   UNIT  10

 OPENING linear_pulse_mt.btn
 FILE TYPE:BTN   UNIT  31

 OPENING linear_pulse_mt.adv
 FILE TYPE:ADV   UNIT  32

 OPENING linear_pulse_mt.dsp
 FILE TYPE:DSP   UNIT  33

 OPENING linear_pulse_mt.ssm
 FILE TYPE:SSM   UNIT  34

 OPENING linear_pulse_mt.rct
 FILE TYPE:RCT   UNIT  36

 OPENING linear_pulse_mt.gcg
 FILE TYPE:GCG   UNIT  35

                              +++++++++++++++++++++++++++++++++++++++++++++++++++++++++++++++++++++++
                              +                                                                     +
                              +                              MT3D-USGS                              +
                              +             A Modular 3D Multi-Species Transport Model              +
                              +    For Simulation of Advection, Dispersion and Chemical Reactions   +
                              +                of Contaminants in Groundwater Systems               +
                              +                                                                     +
                              +++++++++++++++++++++++++++++++++++++++++++++++++++++++++++++++++++++++

  ----- 
 | M T | ## BTN for MT3DMS, generated by Flopy.                                          
 | 3 D | ##                                                                              
  ----- 
 THE TRANSPORT MODEL CONSISTS OF     1 LAYER(S)    1 ROW(S)  101 COLUMN(S)
 NUMBER OF STRESS PERIOD(S) FOR TRANSPORT SIMULATION =    2
 NUMBER OF ALL COMPONENTS INCLUDED IN SIMULATION =    1
 NUMBER OF MOBILE COMPONENTS INCLUDED IN SIMULATION =    1
 UNIT FOR TIME IS S   ;  UNIT FOR LENGTH IS CM  ;  UNIT FOR MASS IS KG  
 OPTIONAL PACKAGES INCLUDED IN CURRENT SIMULATION:
  o ADV   ON UNIT 32
  o DSP   ON UNIT 33
  o SSM   ON UNIT 34
  o RCT   ON UNIT 36
  o GCG   ON UNIT 35


 BTN1 -- BASIC TRANSPORT PACKAGE, VERSION 1, MAY 2016, INPUT READ FROM UNIT 31

 BTN PACKAGE KEYWORD INPUT: 
 DRYCELL OPTION NOT SET
  DRY CELL BUDGET OMITTED FROM GLOBAL MASS BALANCE SUMMARY

 LAYER NUMBER  AQUIFER TYPE
 ------------  ------------
       1            0
                                       WIDTH ALONG ROWS (DELR)  =  0.2000000    
                                       WIDTH ALONG COLS (DELC)  =   4.400000    
                                       TOP ELEV. OF 1ST LAYER   =   0.000000    

                     CELL THICKNESS (DZ)      FOR LAYER  1 READ ON UNIT  31 USING FORMAT: "         (101E15.6) "
                     ------------------------------------------------------------------------------------------
                                       POROSITY                 =  0.3000000     FOR LAYER  1

                     CONCN. BOUNDARY ARRAY    FOR LAYER  1 READ ON UNIT  31 USING FORMAT: "           (101I10) "
                     ------------------------------------------------------------------------------------------

                     INITIAL CONC.: COMP.  01 FOR LAYER  1 READ ON UNIT  31 USING FORMAT: "         (101E15.6) "
                     ------------------------------------------------------------------------------------------

 VALUE INDICATING INACTIVE CONCENTRATION CELLS =   0.1000000E+31
 MINIMUM SATURATED THICKNESS [THKMIN] ALLOWED =  0.0100000 OF TOTAL CELL THICKNESS


 OUTPUT CONTROL OPTIONS
 ----------------------

 DO NOT PRINT CELL CONCENTRATION
 DO NOT PRINT PARTICLE NUMBER IN EACH CELL
 DO NOT PRINT RETARDATION FACTOR
 DO NOT PRINT DISPERSION COEFFICIENT
 SAVE DISSOLVED PHASE CONCENTRATIONS IN UNFORMATTED FILES [MT3Dnnn.UCN]
  FOR EACH SPECIES ON UNITS 201 AND ABOVE

 NUMBER OF TIMES AT WHICH SIMULATION RESULTS ARE SAVED =  100
 TOTAL ELAPSED TIMES AT WHICH SIMULATION RESULTS ARE SAVED: 
    0.0000       91.200       182.40       273.60       364.80       456.00       547.20       638.40    
    729.60       820.80       912.00       1003.2       1094.4       1185.6       1276.8       1368.0    
    1459.2       1550.4       1641.6       1732.8       1824.0       1915.2       2006.4       2097.6    
    2188.8       2280.0       2371.2       2462.4       2553.6       2644.8       2736.0       2827.2    
    2918.4       3009.6       3100.8       3192.0       3283.2       3374.4       3465.6       3556.8    
    3648.0       3739.2       3830.4       3921.6       4012.8       4104.0       4195.2       4286.4    
    4377.6       4468.8       4560.0       4651.2       4742.4       4833.6       4924.8       5016.0    
    5107.2       5198.4       5289.6       5380.8       5472.0       5563.2       5654.4       5745.6    
    5836.8       5928.0       6019.2       6110.4       6201.6       6292.8       6384.0       6475.2    
    6566.4       6657.6       6748.8       6840.0       6931.2       7022.4       7113.6       7204.8    
    7296.0       7387.2       7478.4       7569.6       7660.8       7752.0       7843.2       7934.4    
    8025.6       8116.8       8208.0       8299.2       8390.4       8481.6       8572.8       8664.0    
    8755.2       8846.4       8937.6       9028.8    

 NUMBER OF OBSERVATION POINTS =    0

 SAVE ONE-LINE SUMMARY OF MASS BUDGETS IN FILES [MT3Dnnn.MAS]
  FOR EACH SPECIES ON UNITS 601 AND ABOVE, EVERY  1 TRANSPORT STEPS

 MAXIMUM LENGTH ALONG THE X (J) AXIS =   20.20000    
 MAXIMUM LENGTH ALONG THE Y (I) AXIS =   4.400000    
 MAXIMUM LENGTH ALONG THE Z (K) AXIS =   4.400000    
 FMI1 -- FLOW MODEL INTERFACE PACKAGE, VERSION 1, MAY 2016, INPUT READ FROM UNIT 10
 FLOW MODEL IS STEADY-STATE
 FLOW MODEL CONTAINS CONSTANT-HEAD CELLS


 ADV1 -- ADVECTION PACKAGE, VERSION 1, MAY 2016, INPUT READ FROM UNIT 32
 ADVECTION IS SOLVED WITH THE [MOC] SCHEME
 COURANT NUMBER ALLOWED IN SOLVING THE ADVECTION TERM = 0.750    
 MAXIMUM NUMBER OF MOVING PARTICLES ALLOWED =  800000


 ADVECTION SOLUTION OPTIONS
 --------------------------

 ADVECTION IS SOLVED WITH THE [MOC] SCHEME
 COURANT NUMBER ALLOWED IN SOLVING THE ADVECTION TERM = 0.750    
 MAXIMUM NUMBER OF MOVING PARTICLES ALLOWED =  800000
 METHOD FOR PARTICLE TRACKING IS [MIXED ORDER]
 CONCENTRATION WEIGHTING FACTOR [WD] =     0.500
 THE CONCENTRATION GRADIENT CONSIDERED NEGLIGIBLE [DCEPS] =  0.1000000E-04
 INITIAL PARTICLES ARE PLACED ON  2 VERTICAL PLANE(S) WITHIN CELL BLOCK
 PARTICLE NUMBER PER CELL IF DCCELL =< DCEPS =   10
 PARTICLE NUMBER PER CELL IF DCCELL  > DCEPS =   40
 MINIMUM PARTICLE NUMBER ALLOWED PER CELL    =    5
 MAXIMUM PARTICLE NUMBER ALLOWED PER CELL    =   80
 MULTIPLIER OF PARTICLE NUMBER AT SOURCE     =  1.00    

 DSP1 -- DISPERSION PACKAGE, VERSION 1, MAY 2016, INPUT READ FROM UNIT 33


 DISPERSION INPUT PARAMETERS
 ---------------------------

                                       LONG. DISPERSIVITY (AL)  =  0.3000000     FOR LAYER  1
                                       H. TRANS./LONG. DISP.    =  0.1000000    
                                       V. TRANS./LONG. DISP.    =  0.1000000E-01
                                       DIFFUSION COEFFICIENT    =  0.1000000E-08

 SSM1 -- SINK & SOURCE MIXING PACKAGE, VERSION 1, MAY 2016, INPUT READ FROM UNIT 34
 HEADER LINE OF THE SSM PACKAGE INPUT FILE:
  F F F F F F F F F F F F F F F F                                        
 MAJOR STRESS COMPONENTS PRESENT IN THE FLOW MODEL:
 MAXIMUM NUMBER OF POINT SINKS/SOURCES =       4

 RCT1 -- CHEMICAL REACTION PACKAGE, VERSION 1, MAY 2016, INPUT READ FROM UNIT 36
 TYPE OF SORPTION SELECTED IS [LINEAR]
 NO FIRST-ORDER RATE REACTION IS SIMULATED
 REACTION COEFFICIENTS ASSIGNED CELL-BY-CELL
 INITIAL SORBED/IMMOBILE PHASE CONCENTRATION ASSIGNED BY DEFAULT
 SAVE SORBED/IMMOBILE PHASE CONCENTRATIONS IN UNFORMATTED FILES [MT3DnnnS.UCN]
  FOR EACH SPECIES ON UNITS 301 AND ABOVE, IF SORPTION/MASS TRANSFER SIMULATED


 SORPTION AND 1ST/0TH ORDER REACTION PARAMETERS
 ----------------------------------------------

                                       BULK DENSITY (RHOB)      =   1.600000     FOR LAYER  1
                                       1ST SORP. COEF. COMP. 01 =  0.4000000     FOR LAYER  1
                                       2ND SORP. COEF. COMP. 01 =   0.000000     FOR LAYER  1

 GCG1 -- GENERALIZED CONJUGATE GRADIENT SOLVER PACKAGE, VERSION 1, OCTOBER 2010 INPUT READ FROM UNIT 35
 MAXIMUM OF    1 OUTER ITERATIONS
        AND   50 INNER ITERATIONS ALLOWED FOR CLOSURE
 THE PRECONDITIONING TYPE SELECTED IS MODIFIED INCOMPLETE CHOLESKY (MIC).
 DISPERSION CROSS TERMS LUMPED INTO RIGHT-HAND-SIDE



                                               SOLUTION BY THE GENERALIZED CONJUGATE GRADIENT METHOD
                                               -----------------------------------------------------
                                     MAXIMUM OUTER ITERATIONS ALLOWED FOR CLOSURE =        1
                                     MAXIMUM INNER ITERATIONS ALLOWED FOR CLOSURE =       50
                                                    PRECONDITIONING TYPE SELECTED =    3
                                                           ACCELERATION PARAMETER =     1.0000    
                                       CONCENTRATION CHANGE CRITERION FOR CLOSURE =    0.10000E-04
                                       GCG CONCENTRATION CHANGE PRINTOUT INTERVAL =      999


                                   ++++++++++++++++++++++++++++++++++++++++++++++++++++++++++++++
                                                       STRESS PERIOD NO.  001
                                   ++++++++++++++++++++++++++++++++++++++++++++++++++++++++++++++


 LENGTH OF CURRENT STRESS PERIOD =   120.0000    
 NUMBER OF TIME STEPS FOR CURRENT STRESS PERIOD =    1
 TIME STEP MULTIPLIER USED IN FLOW SOLUTION =   1.000000    

 ***Type of Transport Simulation is TRANSIENT

 USER-SPECIFIED TRANSPORT STEPSIZE =   0.000000    S   
 MAXIMUM NUMBER OF TRANSPORT STEPS ALLOWED  IN ONE FLOW TIME STEP =     50000
 MULTIPLIER FOR SUCCESSIVE TRANSPORT STEPS  [USED IN IMPLICIT SCHEMES] =     1.000
 MAXIMUM TRANSPORT STEP SIZE  [USED IN IMPLICIT SCHEMES] =   0.000000    S   

       NO    LAYER   ROW   COLUMN   CONCENTRATION       TYPE            COMPONENT
       1       1       1       1       1.000000         CONSTANT CONC.      1


                                          ================================================
                                                         TIME STEP NO.  001
                                          ================================================

 FROM TIME =   0.0000     TO    120.00    


                    "THKSAT          " FLOW TERMS FOR TIME STEP  1, STRESS PERIOD  1 READ UNFORMATTED ON UNIT 10
                    --------------------------------------------------------------------------------------------

                    "QXX             " FLOW TERMS FOR TIME STEP  1, STRESS PERIOD  1 READ UNFORMATTED ON UNIT 10
                    --------------------------------------------------------------------------------------------

 MAXIMUM STEPSIZE DURING WHICH ANY PARTICLE CANNOT MOVE MORE THAN ONE CELL
 =  14.29    (WHEN MIN. R.F.=1)  AT K=   1, I=   1, J=   2

 MAXIMUM STEPSIZE WHICH MEETS STABILITY CRITERION OF THE ADVECTION TERM
 (FOR PURE FINITE-DIFFERENCE OPTION, MIXELM=0) 
 =  14.29    (WHEN MIN. R.F.=1)  AT K=   1, I=   1, J=   2

                    "CNH             " FLOW TERMS FOR TIME STEP  1, STRESS PERIOD  1 READ UNFORMATTED ON UNIT 10
                    --------------------------------------------------------------------------------------------


 TOTAL NUMBER OF POINT SOURCES/SINKS PRESENT IN THE FLOW MODEL =     3

 MAXIMUM STEPSIZE WHICH MEETS STABILITY CRITERION OF THE SINK & SOURCE TERM
 =  14.29    (WHEN MIN. R.F.=1)  AT K=   1, I=   1, J=   1

 MAXIMUM STEPSIZE WHICH MEETS STABILITY CRITERION OF THE DISPERSION TERM
 =  4.762    (WHEN MIN. R.F.=1)  AT K=   1, I=   1, J=   1



 >>>>>>>>>>>>>>>>>>>>>>>>>>>>>>>>>>>>>>>>>>>>>>>>>>>>>>>FOR COMPONENT NO. 01<<<<<<<<<<<<<<<<<<<<<<<<<<<<<<<<<<<<<<<<<<<<<<<<<<<<<<<


                                            -------------------------------------------
                                                      TRANSPORT STEP NO.    1
                                            -------------------------------------------

 TOTAL ELAPSED TIME SINCE BEGINNING OF SIMULATION =   0.000000    S   
 .....................................................................

 TOTAL PARTICLES USED IN THE CURRENT STEP =      1054
 PARTICLES ADDED AT BEGINNING OF THE STEP =      1054
 PARTICLES REMOVED AT END OF LAST STEP    =         0

                     CUMULATIVE MASS BUDGETS AT END OF TRANSPORT STEP    1, TIME STEP    1, STRESS PERIOD    1
                     -----------------------------------------------------------------------------------------

                                                             IN                           OUT
                                                      ----------------             ----------------
                               CONSTANT CONCENTRATION:    0.000000                    0.000000    
                                        CONSTANT HEAD:    0.000000                    0.000000    
                               1ST/0TH ORDER REACTION:    0.000000                    0.000000    
                               MASS STOR (FLOW MODEL):    0.000000                    0.000000    
                                MASS STORAGE (SOLUTE):    0.000000                    0.000000    
                                MASS STORAGE (SORBED):    0.000000                    0.000000    
                            ---------------------------------------------------------------------------
                                              [TOTAL]:    0.000000     KG             0.000000     KG  

                                                          NET (IN - OUT):    0.000000    
                                                   DISCREPANCY (PERCENT):    0.000000    
     1 CALLS TO GCG PACKAGE FOR TRANSPORT TIME STEP     2 IN FLOW TIME STEP     1 STRESS PERIOD     1
      2 TOTAL ITERATIONS
     1 CALLS TO GCG PACKAGE FOR TRANSPORT TIME STEP     3 IN FLOW TIME STEP     1 STRESS PERIOD     1
      2 TOTAL ITERATIONS
     1 CALLS TO GCG PACKAGE FOR TRANSPORT TIME STEP     4 IN FLOW TIME STEP     1 STRESS PERIOD     1
      2 TOTAL ITERATIONS



 >>>>>>>>>>>>>>>>>>>>>>>>>>>>>>>>>>>>>>>>>>>>>>>>>>>>>>>FOR COMPONENT NO. 01<<<<<<<<<<<<<<<<<<<<<<<<<<<<<<<<<<<<<<<<<<<<<<<<<<<<<<<


                                            -------------------------------------------
                                                      TRANSPORT STEP NO.    4
                                            -------------------------------------------

 TOTAL ELAPSED TIME SINCE BEGINNING OF SIMULATION =   91.20000    S   
 .....................................................................

 TOTAL PARTICLES USED IN THE CURRENT STEP =      1054
 PARTICLES ADDED AT BEGINNING OF THE STEP =         0
 PARTICLES REMOVED AT END OF LAST STEP    =         0

                     CUMULATIVE MASS BUDGETS AT END OF TRANSPORT STEP    4, TIME STEP    1, STRESS PERIOD    1
                     -----------------------------------------------------------------------------------------

                                                             IN                           OUT
                                                      ----------------             ----------------
                               CONSTANT CONCENTRATION:    9.932568                    0.000000    
                                        CONSTANT HEAD:    0.000000                  -0.5642099E-36
                               1ST/0TH ORDER REACTION:    0.000000                    0.000000    
                               MASS STOR (FLOW MODEL):    0.000000                    0.000000    
                                MASS STORAGE (SOLUTE):   0.8566110E-02               -3.070604    
                                MASS STORAGE (SORBED):   0.1827437E-01               -6.550623    
                            ---------------------------------------------------------------------------
                                              [TOTAL]:    9.959408     KG            -9.621227     KG  

                                                          NET (IN - OUT):   0.3381805    
                                                   DISCREPANCY (PERCENT):    3.454235    
     1 CALLS TO GCG PACKAGE FOR TRANSPORT TIME STEP     5 IN FLOW TIME STEP     1 STRESS PERIOD     1
      2 TOTAL ITERATIONS
  MAXIMUM CONCENTRATION CHANGES FOR EACH ITERATION:
  MAX. CHANGE LAYER,ROW,COL MAX. CHANGE LAYER,ROW,COL MAX. CHANGE LAYER,ROW,COL MAX. CHANGE LAYER,ROW,COL MAX. CHANGE LAYER,ROW,COL
 ------------------------------------------------------------------------------------------------------------------------------------
   0.4796E-01 (  1,  1,  3)  0.9313E-09 (  1,  1, 11)



 >>>>>>>>>>>>>>>>>>>>>>>>>>>>>>>>>>>>>>>>>>>>>>>>>>>>>>>FOR COMPONENT NO. 01<<<<<<<<<<<<<<<<<<<<<<<<<<<<<<<<<<<<<<<<<<<<<<<<<<<<<<<


                                            -------------------------------------------
                                                      TRANSPORT STEP NO.    5
                                            -------------------------------------------

 TOTAL ELAPSED TIME SINCE BEGINNING OF SIMULATION =   120.0000    S   
 .....................................................................

 TOTAL PARTICLES USED IN THE CURRENT STEP =      1086
 PARTICLES ADDED AT BEGINNING OF THE STEP =        32
 PARTICLES REMOVED AT END OF LAST STEP    =         0

                     CUMULATIVE MASS BUDGETS AT END OF TRANSPORT STEP    5, TIME STEP    1, STRESS PERIOD    1
                     -----------------------------------------------------------------------------------------

                                                             IN                           OUT
                                                      ----------------             ----------------
                               CONSTANT CONCENTRATION:    12.61073                    0.000000    
                                        CONSTANT HEAD:    0.000000                  -0.8927168E-35
                               1ST/0TH ORDER REACTION:    0.000000                    0.000000    
                               MASS STOR (FLOW MODEL):    0.000000                    0.000000    
                                MASS STORAGE (SOLUTE):   0.8566110E-02               -3.927263    
                                MASS STORAGE (SORBED):   0.1827437E-01               -8.378160    
                            ---------------------------------------------------------------------------
                                              [TOTAL]:    12.63757     KG            -12.30542     KG  

                                                          NET (IN - OUT):   0.3321495    
                                                   DISCREPANCY (PERCENT):    2.663269    


                                   ++++++++++++++++++++++++++++++++++++++++++++++++++++++++++++++
                                                       STRESS PERIOD NO.  002
                                   ++++++++++++++++++++++++++++++++++++++++++++++++++++++++++++++


 LENGTH OF CURRENT STRESS PERIOD =   9000.000    
 NUMBER OF TIME STEPS FOR CURRENT STRESS PERIOD =    1
 TIME STEP MULTIPLIER USED IN FLOW SOLUTION =   1.000000    

 ***Type of Transport Simulation is TRANSIENT

 USER-SPECIFIED TRANSPORT STEPSIZE =   0.000000    S   
 MAXIMUM NUMBER OF TRANSPORT STEPS ALLOWED  IN ONE FLOW TIME STEP =     50000
 MULTIPLIER FOR SUCCESSIVE TRANSPORT STEPS  [USED IN IMPLICIT SCHEMES] =     1.000
 MAXIMUM TRANSPORT STEP SIZE  [USED IN IMPLICIT SCHEMES] =   0.000000    S   

       NO    LAYER   ROW   COLUMN   CONCENTRATION       TYPE            COMPONENT
       1       1       1       1       0.000000         CONSTANT CONC.      1


                                          ================================================
                                                         TIME STEP NO.  001
                                          ================================================

 FROM TIME =   120.00     TO    9120.0    



     1 CALLS TO GCG PACKAGE FOR TRANSPORT TIME STEP     1 IN FLOW TIME STEP     1 STRESS PERIOD     2
      2 TOTAL ITERATIONS
     1 CALLS TO GCG PACKAGE FOR TRANSPORT TIME STEP     2 IN FLOW TIME STEP     1 STRESS PERIOD     2
      2 TOTAL ITERATIONS



 >>>>>>>>>>>>>>>>>>>>>>>>>>>>>>>>>>>>>>>>>>>>>>>>>>>>>>>FOR COMPONENT NO. 01<<<<<<<<<<<<<<<<<<<<<<<<<<<<<<<<<<<<<<<<<<<<<<<<<<<<<<<


                                            -------------------------------------------
                                                      TRANSPORT STEP NO.    2
                                            -------------------------------------------

 TOTAL ELAPSED TIME SINCE BEGINNING OF SIMULATION =   182.4000    S   
 .....................................................................

 TOTAL PARTICLES USED IN THE CURRENT STEP =      1118
 PARTICLES ADDED AT BEGINNING OF THE STEP =         0
 PARTICLES REMOVED AT END OF LAST STEP    =         0

                     CUMULATIVE MASS BUDGETS AT END OF TRANSPORT STEP    2, TIME STEP    1, STRESS PERIOD    2
                     -----------------------------------------------------------------------------------------

                                                             IN                           OUT
                                                      ----------------             ----------------
                               CONSTANT CONCENTRATION:    12.61073                   -1.267407    
                                        CONSTANT HEAD:    0.000000                  -0.3226905E-32
                               1ST/0TH ORDER REACTION:    0.000000                    0.000000    
                               MASS STOR (FLOW MODEL):    0.000000                    0.000000    
                                MASS STORAGE (SOLUTE):    1.642967                   -4.977919    
                                MASS STORAGE (SORBED):    3.504996                   -10.61956    
                            ---------------------------------------------------------------------------
                                              [TOTAL]:    17.75870     KG            -16.86489     KG  

                                                          NET (IN - OUT):   0.8938103    
                                                   DISCREPANCY (PERCENT):    5.163014    
     1 CALLS TO GCG PACKAGE FOR TRANSPORT TIME STEP     3 IN FLOW TIME STEP     1 STRESS PERIOD     2
      2 TOTAL ITERATIONS
     1 CALLS TO GCG PACKAGE FOR TRANSPORT TIME STEP     4 IN FLOW TIME STEP     1 STRESS PERIOD     2
      2 TOTAL ITERATIONS
     1 CALLS TO GCG PACKAGE FOR TRANSPORT TIME STEP     5 IN FLOW TIME STEP     1 STRESS PERIOD     2
      2 TOTAL ITERATIONS



 >>>>>>>>>>>>>>>>>>>>>>>>>>>>>>>>>>>>>>>>>>>>>>>>>>>>>>>FOR COMPONENT NO. 01<<<<<<<<<<<<<<<<<<<<<<<<<<<<<<<<<<<<<<<<<<<<<<<<<<<<<<<


                                            -------------------------------------------
                                                      TRANSPORT STEP NO.    5
                                            -------------------------------------------

 TOTAL ELAPSED TIME SINCE BEGINNING OF SIMULATION =   273.6000    S   
 .....................................................................

 TOTAL PARTICLES USED IN THE CURRENT STEP =      1150
 PARTICLES ADDED AT BEGINNING OF THE STEP =         0
 PARTICLES REMOVED AT END OF LAST STEP    =         0

                     CUMULATIVE MASS BUDGETS AT END OF TRANSPORT STEP    5, TIME STEP    1, STRESS PERIOD    2
                     -----------------------------------------------------------------------------------------

                                                             IN                           OUT
                                                      ----------------             ----------------
                               CONSTANT CONCENTRATION:    12.61073                   -1.773707    
                                        CONSTANT HEAD:    0.000000                  -0.4831266E-29
                               1ST/0TH ORDER REACTION:    0.000000                    0.000000    
                               MASS STOR (FLOW MODEL):    0.000000                    0.000000    
                                MASS STORAGE (SOLUTE):    3.023867                   -5.981544    
                                MASS STORAGE (SORBED):    6.450916                   -12.76063    
                            ---------------------------------------------------------------------------
                                              [TOTAL]:    22.08552     KG            -20.51588     KG  

                                                          NET (IN - OUT):    1.569639    
                                                   DISCREPANCY (PERCENT):    7.368957    
     1 CALLS TO GCG PACKAGE FOR TRANSPORT TIME STEP     6 IN FLOW TIME STEP     1 STRESS PERIOD     2
      2 TOTAL ITERATIONS
     1 CALLS TO GCG PACKAGE FOR TRANSPORT TIME STEP     7 IN FLOW TIME STEP     1 STRESS PERIOD     2
      2 TOTAL ITERATIONS
     1 CALLS TO GCG PACKAGE FOR TRANSPORT TIME STEP     8 IN FLOW TIME STEP     1 STRESS PERIOD     2
      2 TOTAL ITERATIONS



 >>>>>>>>>>>>>>>>>>>>>>>>>>>>>>>>>>>>>>>>>>>>>>>>>>>>>>>FOR COMPONENT NO. 01<<<<<<<<<<<<<<<<<<<<<<<<<<<<<<<<<<<<<<<<<<<<<<<<<<<<<<<


                                            -------------------------------------------
                                                      TRANSPORT STEP NO.    8
                                            -------------------------------------------

 TOTAL ELAPSED TIME SINCE BEGINNING OF SIMULATION =   364.8000    S   
 .....................................................................

 TOTAL PARTICLES USED IN THE CURRENT STEP =      1138
 PARTICLES ADDED AT BEGINNING OF THE STEP =        42
 PARTICLES REMOVED AT END OF LAST STEP    =        86

                     CUMULATIVE MASS BUDGETS AT END OF TRANSPORT STEP    8, TIME STEP    1, STRESS PERIOD    2
                     -----------------------------------------------------------------------------------------

                                                             IN                           OUT
                                                      ----------------             ----------------
                               CONSTANT CONCENTRATION:    12.61073                   -2.005674    
                                        CONSTANT HEAD:    0.000000                  -0.2698063E-26
                               1ST/0TH ORDER REACTION:    0.000000                    0.000000    
                               MASS STOR (FLOW MODEL):    0.000000                    0.000000    
                                MASS STORAGE (SOLUTE):    3.848990                   -6.727187    
                                MASS STORAGE (SORBED):    8.211178                   -14.35133    
                            ---------------------------------------------------------------------------
                                              [TOTAL]:    24.67090     KG            -23.08419     KG  

                                                          NET (IN - OUT):    1.586706    
                                                   DISCREPANCY (PERCENT):    6.645181    
     1 CALLS TO GCG PACKAGE FOR TRANSPORT TIME STEP     9 IN FLOW TIME STEP     1 STRESS PERIOD     2
      2 TOTAL ITERATIONS
     1 CALLS TO GCG PACKAGE FOR TRANSPORT TIME STEP    10 IN FLOW TIME STEP     1 STRESS PERIOD     2
      2 TOTAL ITERATIONS
     1 CALLS TO GCG PACKAGE FOR TRANSPORT TIME STEP    11 IN FLOW TIME STEP     1 STRESS PERIOD     2
      2 TOTAL ITERATIONS



 >>>>>>>>>>>>>>>>>>>>>>>>>>>>>>>>>>>>>>>>>>>>>>>>>>>>>>>FOR COMPONENT NO. 01<<<<<<<<<<<<<<<<<<<<<<<<<<<<<<<<<<<<<<<<<<<<<<<<<<<<<<<


                                            -------------------------------------------
                                                      TRANSPORT STEP NO.   11
                                            -------------------------------------------

 TOTAL ELAPSED TIME SINCE BEGINNING OF SIMULATION =   456.0000    S   
 .....................................................................

 TOTAL PARTICLES USED IN THE CURRENT STEP =      1170
 PARTICLES ADDED AT BEGINNING OF THE STEP =        32
 PARTICLES REMOVED AT END OF LAST STEP    =         0

                     CUMULATIVE MASS BUDGETS AT END OF TRANSPORT STEP   11, TIME STEP    1, STRESS PERIOD    2
                     -----------------------------------------------------------------------------------------

                                                             IN                           OUT
                                                      ----------------             ----------------
                               CONSTANT CONCENTRATION:    12.61073                   -2.109723    
                                        CONSTANT HEAD:    0.000000                  -0.6907714E-24
                               1ST/0TH ORDER REACTION:    0.000000                    0.000000    
                               MASS STOR (FLOW MODEL):    0.000000                    0.000000    
                                MASS STORAGE (SOLUTE):    4.508943                   -7.325629    
                                MASS STORAGE (SORBED):    9.619079                   -15.62801    
                            ---------------------------------------------------------------------------
                                              [TOTAL]:    26.73875     KG            -25.06336     KG  

                                                          NET (IN - OUT):    1.675392    
                                                   DISCREPANCY (PERCENT):    6.468431    
     1 CALLS TO GCG PACKAGE FOR TRANSPORT TIME STEP    12 IN FLOW TIME STEP     1 STRESS PERIOD     2
      2 TOTAL ITERATIONS
     1 CALLS TO GCG PACKAGE FOR TRANSPORT TIME STEP    13 IN FLOW TIME STEP     1 STRESS PERIOD     2
      2 TOTAL ITERATIONS
     1 CALLS TO GCG PACKAGE FOR TRANSPORT TIME STEP    14 IN FLOW TIME STEP     1 STRESS PERIOD     2
      2 TOTAL ITERATIONS



 >>>>>>>>>>>>>>>>>>>>>>>>>>>>>>>>>>>>>>>>>>>>>>>>>>>>>>>FOR COMPONENT NO. 01<<<<<<<<<<<<<<<<<<<<<<<<<<<<<<<<<<<<<<<<<<<<<<<<<<<<<<<


                                            -------------------------------------------
                                                      TRANSPORT STEP NO.   14
                                            -------------------------------------------

 TOTAL ELAPSED TIME SINCE BEGINNING OF SIMULATION =   547.2000    S   
 .....................................................................

 TOTAL PARTICLES USED IN THE CURRENT STEP =      1234
 PARTICLES ADDED AT BEGINNING OF THE STEP =        32
 PARTICLES REMOVED AT END OF LAST STEP    =         0

                     CUMULATIVE MASS BUDGETS AT END OF TRANSPORT STEP   14, TIME STEP    1, STRESS PERIOD    2
                     -----------------------------------------------------------------------------------------

                                                             IN                           OUT
                                                      ----------------             ----------------
                               CONSTANT CONCENTRATION:    12.61073                   -2.153868    
                                        CONSTANT HEAD:    0.000000                  -0.9813942E-22
                               1ST/0TH ORDER REACTION:    0.000000                    0.000000    
                               MASS STOR (FLOW MODEL):    0.000000                    0.000000    
                                MASS STORAGE (SOLUTE):    4.950707                   -7.846561    
                                MASS STORAGE (SORBED):    10.56151                   -16.73933    
                            ---------------------------------------------------------------------------
                                              [TOTAL]:    28.12295     KG            -26.73976     KG  

                                                          NET (IN - OUT):    1.383188    
                                                   DISCREPANCY (PERCENT):    5.042362    
     1 CALLS TO GCG PACKAGE FOR TRANSPORT TIME STEP    15 IN FLOW TIME STEP     1 STRESS PERIOD     2
      2 TOTAL ITERATIONS
     1 CALLS TO GCG PACKAGE FOR TRANSPORT TIME STEP    16 IN FLOW TIME STEP     1 STRESS PERIOD     2
      2 TOTAL ITERATIONS
     1 CALLS TO GCG PACKAGE FOR TRANSPORT TIME STEP    17 IN FLOW TIME STEP     1 STRESS PERIOD     2
      2 TOTAL ITERATIONS



 >>>>>>>>>>>>>>>>>>>>>>>>>>>>>>>>>>>>>>>>>>>>>>>>>>>>>>>FOR COMPONENT NO. 01<<<<<<<<<<<<<<<<<<<<<<<<<<<<<<<<<<<<<<<<<<<<<<<<<<<<<<<


                                            -------------------------------------------
                                                      TRANSPORT STEP NO.   17
                                            -------------------------------------------

 TOTAL ELAPSED TIME SINCE BEGINNING OF SIMULATION =   638.4000    S   
 .....................................................................

 TOTAL PARTICLES USED IN THE CURRENT STEP =      1298
 PARTICLES ADDED AT BEGINNING OF THE STEP =         0
 PARTICLES REMOVED AT END OF LAST STEP    =         0

                     CUMULATIVE MASS BUDGETS AT END OF TRANSPORT STEP   17, TIME STEP    1, STRESS PERIOD    2
                     -----------------------------------------------------------------------------------------

                                                             IN                           OUT
                                                      ----------------             ----------------
                               CONSTANT CONCENTRATION:    12.61073                   -2.180633    
                                        CONSTANT HEAD:    0.000000                  -0.9833757E-20
                               1ST/0TH ORDER REACTION:    0.000000                    0.000000    
                               MASS STOR (FLOW MODEL):    0.000000                    0.000000    
                                MASS STORAGE (SOLUTE):    5.426947                   -8.399920    
                                MASS STORAGE (SORBED):    11.57749                   -17.91983    
                            ---------------------------------------------------------------------------
                                              [TOTAL]:    29.61517     KG            -28.50038     KG  

                                                          NET (IN - OUT):    1.114784    
                                                   DISCREPANCY (PERCENT):    3.836441    
     1 CALLS TO GCG PACKAGE FOR TRANSPORT TIME STEP    18 IN FLOW TIME STEP     1 STRESS PERIOD     2
      2 TOTAL ITERATIONS
     1 CALLS TO GCG PACKAGE FOR TRANSPORT TIME STEP    19 IN FLOW TIME STEP     1 STRESS PERIOD     2
      2 TOTAL ITERATIONS
     1 CALLS TO GCG PACKAGE FOR TRANSPORT TIME STEP    20 IN FLOW TIME STEP     1 STRESS PERIOD     2
      2 TOTAL ITERATIONS



 >>>>>>>>>>>>>>>>>>>>>>>>>>>>>>>>>>>>>>>>>>>>>>>>>>>>>>>FOR COMPONENT NO. 01<<<<<<<<<<<<<<<<<<<<<<<<<<<<<<<<<<<<<<<<<<<<<<<<<<<<<<<


                                            -------------------------------------------
                                                      TRANSPORT STEP NO.   20
                                            -------------------------------------------

 TOTAL ELAPSED TIME SINCE BEGINNING OF SIMULATION =   729.6000    S   
 .....................................................................

 TOTAL PARTICLES USED IN THE CURRENT STEP =      1288
 PARTICLES ADDED AT BEGINNING OF THE STEP =        32
 PARTICLES REMOVED AT END OF LAST STEP    =         0

                     CUMULATIVE MASS BUDGETS AT END OF TRANSPORT STEP   20, TIME STEP    1, STRESS PERIOD    2
                     -----------------------------------------------------------------------------------------

                                                             IN                           OUT
                                                      ----------------             ----------------
                               CONSTANT CONCENTRATION:    12.61073                   -2.198301    
                                        CONSTANT HEAD:    0.000000                  -0.6442644E-18
                               1ST/0TH ORDER REACTION:    0.000000                    0.000000    
                               MASS STOR (FLOW MODEL):    0.000000                    0.000000    
                                MASS STORAGE (SOLUTE):    5.871509                   -8.836206    
                                MASS STORAGE (SORBED):    12.52589                   -18.85057    
                            ---------------------------------------------------------------------------
                                              [TOTAL]:    31.00813     KG            -29.88508     KG  

                                                          NET (IN - OUT):    1.123049    
                                                   DISCREPANCY (PERCENT):    3.688585    
     1 CALLS TO GCG PACKAGE FOR TRANSPORT TIME STEP    21 IN FLOW TIME STEP     1 STRESS PERIOD     2
      2 TOTAL ITERATIONS
     1 CALLS TO GCG PACKAGE FOR TRANSPORT TIME STEP    22 IN FLOW TIME STEP     1 STRESS PERIOD     2
      2 TOTAL ITERATIONS
     1 CALLS TO GCG PACKAGE FOR TRANSPORT TIME STEP    23 IN FLOW TIME STEP     1 STRESS PERIOD     2
      2 TOTAL ITERATIONS



 >>>>>>>>>>>>>>>>>>>>>>>>>>>>>>>>>>>>>>>>>>>>>>>>>>>>>>>FOR COMPONENT NO. 01<<<<<<<<<<<<<<<<<<<<<<<<<<<<<<<<<<<<<<<<<<<<<<<<<<<<<<<


                                            -------------------------------------------
                                                      TRANSPORT STEP NO.   23
                                            -------------------------------------------

 TOTAL ELAPSED TIME SINCE BEGINNING OF SIMULATION =   820.8000    S   
 .....................................................................

 TOTAL PARTICLES USED IN THE CURRENT STEP =      1320
 PARTICLES ADDED AT BEGINNING OF THE STEP =        32
 PARTICLES REMOVED AT END OF LAST STEP    =         0

                     CUMULATIVE MASS BUDGETS AT END OF TRANSPORT STEP   23, TIME STEP    1, STRESS PERIOD    2
                     -----------------------------------------------------------------------------------------

                                                             IN                           OUT
                                                      ----------------             ----------------
                               CONSTANT CONCENTRATION:    12.61073                   -2.208932    
                                        CONSTANT HEAD:    0.000000                  -0.2466233E-16
                               1ST/0TH ORDER REACTION:    0.000000                    0.000000    
                               MASS STOR (FLOW MODEL):    0.000000                    0.000000    
                                MASS STORAGE (SOLUTE):    6.285959                   -9.238842    
                                MASS STORAGE (SORBED):    13.41005                   -19.70953    
                            ---------------------------------------------------------------------------
                                              [TOTAL]:    32.30674     KG            -31.15730     KG  

                                                          NET (IN - OUT):    1.149437    
                                                   DISCREPANCY (PERCENT):    3.622325    
     1 CALLS TO GCG PACKAGE FOR TRANSPORT TIME STEP    24 IN FLOW TIME STEP     1 STRESS PERIOD     2
      2 TOTAL ITERATIONS
     1 CALLS TO GCG PACKAGE FOR TRANSPORT TIME STEP    25 IN FLOW TIME STEP     1 STRESS PERIOD     2
      2 TOTAL ITERATIONS
     1 CALLS TO GCG PACKAGE FOR TRANSPORT TIME STEP    26 IN FLOW TIME STEP     1 STRESS PERIOD     2
      2 TOTAL ITERATIONS



 >>>>>>>>>>>>>>>>>>>>>>>>>>>>>>>>>>>>>>>>>>>>>>>>>>>>>>>FOR COMPONENT NO. 01<<<<<<<<<<<<<<<<<<<<<<<<<<<<<<<<<<<<<<<<<<<<<<<<<<<<<<<


                                            -------------------------------------------
                                                      TRANSPORT STEP NO.   26
                                            -------------------------------------------

 TOTAL ELAPSED TIME SINCE BEGINNING OF SIMULATION =   912.0000    S   
 .....................................................................

 TOTAL PARTICLES USED IN THE CURRENT STEP =      1352
 PARTICLES ADDED AT BEGINNING OF THE STEP =         0
 PARTICLES REMOVED AT END OF LAST STEP    =         0

                     CUMULATIVE MASS BUDGETS AT END OF TRANSPORT STEP   26, TIME STEP    1, STRESS PERIOD    2
                     -----------------------------------------------------------------------------------------

                                                             IN                           OUT
                                                      ----------------             ----------------
                               CONSTANT CONCENTRATION:    12.61073                   -2.214316    
                                        CONSTANT HEAD:    0.000000                  -0.6882205E-15
                               1ST/0TH ORDER REACTION:    0.000000                    0.000000    
                               MASS STOR (FLOW MODEL):    0.000000                    0.000000    
                                MASS STORAGE (SOLUTE):    6.698507                   -9.616241    
                                MASS STORAGE (SORBED):    14.29015                   -20.51465    
                            ---------------------------------------------------------------------------
                                              [TOTAL]:    33.59939     KG            -32.34520     KG  

                                                          NET (IN - OUT):    1.254185    
                                                   DISCREPANCY (PERCENT):    3.803753    
     1 CALLS TO GCG PACKAGE FOR TRANSPORT TIME STEP    27 IN FLOW TIME STEP     1 STRESS PERIOD     2
      2 TOTAL ITERATIONS
     1 CALLS TO GCG PACKAGE FOR TRANSPORT TIME STEP    28 IN FLOW TIME STEP     1 STRESS PERIOD     2
      2 TOTAL ITERATIONS
     1 CALLS TO GCG PACKAGE FOR TRANSPORT TIME STEP    29 IN FLOW TIME STEP     1 STRESS PERIOD     2
      2 TOTAL ITERATIONS



 >>>>>>>>>>>>>>>>>>>>>>>>>>>>>>>>>>>>>>>>>>>>>>>>>>>>>>>FOR COMPONENT NO. 01<<<<<<<<<<<<<<<<<<<<<<<<<<<<<<<<<<<<<<<<<<<<<<<<<<<<<<<


                                            -------------------------------------------
                                                      TRANSPORT STEP NO.   29
                                            -------------------------------------------

 TOTAL ELAPSED TIME SINCE BEGINNING OF SIMULATION =   1003.200    S   
 .....................................................................

 TOTAL PARTICLES USED IN THE CURRENT STEP =      1416
 PARTICLES ADDED AT BEGINNING OF THE STEP =         0
 PARTICLES REMOVED AT END OF LAST STEP    =         0

                     CUMULATIVE MASS BUDGETS AT END OF TRANSPORT STEP   29, TIME STEP    1, STRESS PERIOD    2
                     -----------------------------------------------------------------------------------------

                                                             IN                           OUT
                                                      ----------------             ----------------
                               CONSTANT CONCENTRATION:    12.61073                   -2.217851    
                                        CONSTANT HEAD:    0.000000                  -0.1451377E-13
                               1ST/0TH ORDER REACTION:    0.000000                    0.000000    
                               MASS STOR (FLOW MODEL):    0.000000                    0.000000    
                                MASS STORAGE (SOLUTE):    7.060153                   -9.958888    
                                MASS STORAGE (SORBED):    15.06166                   -21.24563    
                            ---------------------------------------------------------------------------
                                              [TOTAL]:    34.73255     KG            -33.42237     KG  

                                                          NET (IN - OUT):    1.310184    
                                                   DISCREPANCY (PERCENT):    3.844724    
     1 CALLS TO GCG PACKAGE FOR TRANSPORT TIME STEP    30 IN FLOW TIME STEP     1 STRESS PERIOD     2
      2 TOTAL ITERATIONS
     1 CALLS TO GCG PACKAGE FOR TRANSPORT TIME STEP    31 IN FLOW TIME STEP     1 STRESS PERIOD     2
      2 TOTAL ITERATIONS
     1 CALLS TO GCG PACKAGE FOR TRANSPORT TIME STEP    32 IN FLOW TIME STEP     1 STRESS PERIOD     2
      2 TOTAL ITERATIONS



 >>>>>>>>>>>>>>>>>>>>>>>>>>>>>>>>>>>>>>>>>>>>>>>>>>>>>>>FOR COMPONENT NO. 01<<<<<<<<<<<<<<<<<<<<<<<<<<<<<<<<<<<<<<<<<<<<<<<<<<<<<<<


                                            -------------------------------------------
                                                      TRANSPORT STEP NO.   32
                                            -------------------------------------------

 TOTAL ELAPSED TIME SINCE BEGINNING OF SIMULATION =   1094.400    S   
 .....................................................................

 TOTAL PARTICLES USED IN THE CURRENT STEP =      1406
 PARTICLES ADDED AT BEGINNING OF THE STEP =        32
 PARTICLES REMOVED AT END OF LAST STEP    =         0

                     CUMULATIVE MASS BUDGETS AT END OF TRANSPORT STEP   32, TIME STEP    1, STRESS PERIOD    2
                     -----------------------------------------------------------------------------------------

                                                             IN                           OUT
                                                      ----------------             ----------------
                               CONSTANT CONCENTRATION:    12.61073                   -2.220349    
                                        CONSTANT HEAD:    0.000000                  -0.2447588E-12
                               1ST/0TH ORDER REACTION:    0.000000                    0.000000    
                               MASS STOR (FLOW MODEL):    0.000000                    0.000000    
                                MASS STORAGE (SOLUTE):    7.408186                   -10.28357    
                                MASS STORAGE (SORBED):    15.80413                   -21.93827    
                            ---------------------------------------------------------------------------
                                              [TOTAL]:    35.82305     KG            -34.44219     KG  

                                                          NET (IN - OUT):    1.380859    
                                                   DISCREPANCY (PERCENT):    3.930419    
     1 CALLS TO GCG PACKAGE FOR TRANSPORT TIME STEP    33 IN FLOW TIME STEP     1 STRESS PERIOD     2
      2 TOTAL ITERATIONS
     1 CALLS TO GCG PACKAGE FOR TRANSPORT TIME STEP    34 IN FLOW TIME STEP     1 STRESS PERIOD     2
      2 TOTAL ITERATIONS
     1 CALLS TO GCG PACKAGE FOR TRANSPORT TIME STEP    35 IN FLOW TIME STEP     1 STRESS PERIOD     2
      2 TOTAL ITERATIONS



 >>>>>>>>>>>>>>>>>>>>>>>>>>>>>>>>>>>>>>>>>>>>>>>>>>>>>>>FOR COMPONENT NO. 01<<<<<<<<<<<<<<<<<<<<<<<<<<<<<<<<<<<<<<<<<<<<<<<<<<<<<<<


                                            -------------------------------------------
                                                      TRANSPORT STEP NO.   35
                                            -------------------------------------------

 TOTAL ELAPSED TIME SINCE BEGINNING OF SIMULATION =   1185.600    S   
 .....................................................................

 TOTAL PARTICLES USED IN THE CURRENT STEP =      1438
 PARTICLES ADDED AT BEGINNING OF THE STEP =        32
 PARTICLES REMOVED AT END OF LAST STEP    =         0

                     CUMULATIVE MASS BUDGETS AT END OF TRANSPORT STEP   35, TIME STEP    1, STRESS PERIOD    2
                     -----------------------------------------------------------------------------------------

                                                             IN                           OUT
                                                      ----------------             ----------------
                               CONSTANT CONCENTRATION:    12.61073                   -2.221959    
                                        CONSTANT HEAD:    0.000000                  -0.3159557E-11
                               1ST/0TH ORDER REACTION:    0.000000                    0.000000    
                               MASS STOR (FLOW MODEL):    0.000000                    0.000000    
                                MASS STORAGE (SOLUTE):    7.719478                   -10.60090    
                                MASS STORAGE (SORBED):    16.46822                   -22.61525    
                            ---------------------------------------------------------------------------
                                              [TOTAL]:    36.79843     KG            -35.43811     KG  

                                                          NET (IN - OUT):    1.360321    
                                                   DISCREPANCY (PERCENT):    3.766296    
     1 CALLS TO GCG PACKAGE FOR TRANSPORT TIME STEP    36 IN FLOW TIME STEP     1 STRESS PERIOD     2
      2 TOTAL ITERATIONS
     1 CALLS TO GCG PACKAGE FOR TRANSPORT TIME STEP    37 IN FLOW TIME STEP     1 STRESS PERIOD     2
      2 TOTAL ITERATIONS
     1 CALLS TO GCG PACKAGE FOR TRANSPORT TIME STEP    38 IN FLOW TIME STEP     1 STRESS PERIOD     2
      2 TOTAL ITERATIONS



 >>>>>>>>>>>>>>>>>>>>>>>>>>>>>>>>>>>>>>>>>>>>>>>>>>>>>>>FOR COMPONENT NO. 01<<<<<<<<<<<<<<<<<<<<<<<<<<<<<<<<<<<<<<<<<<<<<<<<<<<<<<<


                                            -------------------------------------------
                                                      TRANSPORT STEP NO.   38
                                            -------------------------------------------

 TOTAL ELAPSED TIME SINCE BEGINNING OF SIMULATION =   1276.800    S   
 .....................................................................

 TOTAL PARTICLES USED IN THE CURRENT STEP =      1470
 PARTICLES ADDED AT BEGINNING OF THE STEP =         0
 PARTICLES REMOVED AT END OF LAST STEP    =         0

                     CUMULATIVE MASS BUDGETS AT END OF TRANSPORT STEP   38, TIME STEP    1, STRESS PERIOD    2
                     -----------------------------------------------------------------------------------------

                                                             IN                           OUT
                                                      ----------------             ----------------
                               CONSTANT CONCENTRATION:    12.61073                   -2.222822    
                                        CONSTANT HEAD:    0.000000                  -0.3437699E-10
                               1ST/0TH ORDER REACTION:    0.000000                    0.000000    
                               MASS STOR (FLOW MODEL):    0.000000                    0.000000    
                                MASS STORAGE (SOLUTE):    8.012953                   -10.91883    
                                MASS STORAGE (SORBED):    17.09430                   -23.29350    
                            ---------------------------------------------------------------------------
                                              [TOTAL]:    37.71799     KG            -36.43514     KG  

                                                          NET (IN - OUT):    1.282845    
                                                   DISCREPANCY (PERCENT):    3.459988    
     1 CALLS TO GCG PACKAGE FOR TRANSPORT TIME STEP    39 IN FLOW TIME STEP     1 STRESS PERIOD     2
      2 TOTAL ITERATIONS
     1 CALLS TO GCG PACKAGE FOR TRANSPORT TIME STEP    40 IN FLOW TIME STEP     1 STRESS PERIOD     2
      2 TOTAL ITERATIONS
     1 CALLS TO GCG PACKAGE FOR TRANSPORT TIME STEP    41 IN FLOW TIME STEP     1 STRESS PERIOD     2
      2 TOTAL ITERATIONS



 >>>>>>>>>>>>>>>>>>>>>>>>>>>>>>>>>>>>>>>>>>>>>>>>>>>>>>>FOR COMPONENT NO. 01<<<<<<<<<<<<<<<<<<<<<<<<<<<<<<<<<<<<<<<<<<<<<<<<<<<<<<<


                                            -------------------------------------------
                                                      TRANSPORT STEP NO.   41
                                            -------------------------------------------

 TOTAL ELAPSED TIME SINCE BEGINNING OF SIMULATION =   1368.000    S   
 .....................................................................

 TOTAL PARTICLES USED IN THE CURRENT STEP =      1458
 PARTICLES ADDED AT BEGINNING OF THE STEP =        10
 PARTICLES REMOVED AT END OF LAST STEP    =        86

                     CUMULATIVE MASS BUDGETS AT END OF TRANSPORT STEP   41, TIME STEP    1, STRESS PERIOD    2
                     -----------------------------------------------------------------------------------------

                                                             IN                           OUT
                                                      ----------------             ----------------
                               CONSTANT CONCENTRATION:    12.61073                   -2.223412    
                                        CONSTANT HEAD:    0.000000                  -0.3245164E-09
                               1ST/0TH ORDER REACTION:    0.000000                    0.000000    
                               MASS STOR (FLOW MODEL):    0.000000                    0.000000    
                                MASS STORAGE (SOLUTE):    8.312086                   -11.21435    
                                MASS STORAGE (SORBED):    17.73245                   -23.92393    
                            ---------------------------------------------------------------------------
                                              [TOTAL]:    38.65527     KG            -37.36169     KG  

                                                          NET (IN - OUT):    1.293575    
                                                   DISCREPANCY (PERCENT):    3.403386    
     1 CALLS TO GCG PACKAGE FOR TRANSPORT TIME STEP    42 IN FLOW TIME STEP     1 STRESS PERIOD     2
      2 TOTAL ITERATIONS
     1 CALLS TO GCG PACKAGE FOR TRANSPORT TIME STEP    43 IN FLOW TIME STEP     1 STRESS PERIOD     2
      2 TOTAL ITERATIONS
     1 CALLS TO GCG PACKAGE FOR TRANSPORT TIME STEP    44 IN FLOW TIME STEP     1 STRESS PERIOD     2
      2 TOTAL ITERATIONS



 >>>>>>>>>>>>>>>>>>>>>>>>>>>>>>>>>>>>>>>>>>>>>>>>>>>>>>>FOR COMPONENT NO. 01<<<<<<<<<<<<<<<<<<<<<<<<<<<<<<<<<<<<<<<<<<<<<<<<<<<<<<<


                                            -------------------------------------------
                                                      TRANSPORT STEP NO.   44
                                            -------------------------------------------

 TOTAL ELAPSED TIME SINCE BEGINNING OF SIMULATION =   1459.200    S   
 .....................................................................

 TOTAL PARTICLES USED IN THE CURRENT STEP =      1522
 PARTICLES ADDED AT BEGINNING OF THE STEP =        32
 PARTICLES REMOVED AT END OF LAST STEP    =         0

                     CUMULATIVE MASS BUDGETS AT END OF TRANSPORT STEP   44, TIME STEP    1, STRESS PERIOD    2
                     -----------------------------------------------------------------------------------------

                                                             IN                           OUT
                                                      ----------------             ----------------
                               CONSTANT CONCENTRATION:    12.61073                   -2.223845    
                                        CONSTANT HEAD:    0.000000                  -0.2444560E-08
                               1ST/0TH ORDER REACTION:    0.000000                    0.000000    
                               MASS STOR (FLOW MODEL):    0.000000                    0.000000    
                                MASS STORAGE (SOLUTE):    8.602525                   -11.49844    
                                MASS STORAGE (SORBED):    18.35205                   -24.53000    
                            ---------------------------------------------------------------------------
                                              [TOTAL]:    39.56531     KG            -38.25228     KG  

                                                          NET (IN - OUT):    1.313030    
                                                   DISCREPANCY (PERCENT):    3.374636    
     1 CALLS TO GCG PACKAGE FOR TRANSPORT TIME STEP    45 IN FLOW TIME STEP     1 STRESS PERIOD     2
      2 TOTAL ITERATIONS
     1 CALLS TO GCG PACKAGE FOR TRANSPORT TIME STEP    46 IN FLOW TIME STEP     1 STRESS PERIOD     2
      2 TOTAL ITERATIONS
     1 CALLS TO GCG PACKAGE FOR TRANSPORT TIME STEP    47 IN FLOW TIME STEP     1 STRESS PERIOD     2
      2 TOTAL ITERATIONS



 >>>>>>>>>>>>>>>>>>>>>>>>>>>>>>>>>>>>>>>>>>>>>>>>>>>>>>>FOR COMPONENT NO. 01<<<<<<<<<<<<<<<<<<<<<<<<<<<<<<<<<<<<<<<<<<<<<<<<<<<<<<<


                                            -------------------------------------------
                                                      TRANSPORT STEP NO.   47
                                            -------------------------------------------

 TOTAL ELAPSED TIME SINCE BEGINNING OF SIMULATION =   1550.400    S   
 .....................................................................

 TOTAL PARTICLES USED IN THE CURRENT STEP =      1554
 PARTICLES ADDED AT BEGINNING OF THE STEP =        32
 PARTICLES REMOVED AT END OF LAST STEP    =         0

                     CUMULATIVE MASS BUDGETS AT END OF TRANSPORT STEP   47, TIME STEP    1, STRESS PERIOD    2
                     -----------------------------------------------------------------------------------------

                                                             IN                           OUT
                                                      ----------------             ----------------
                               CONSTANT CONCENTRATION:    12.61073                   -2.224135    
                                        CONSTANT HEAD:    0.000000                  -0.1531084E-07
                               1ST/0TH ORDER REACTION:    0.000000                    0.000000    
                               MASS STOR (FLOW MODEL):    0.000000                    0.000000    
                                MASS STORAGE (SOLUTE):    8.908106                   -11.78271    
                                MASS STORAGE (SORBED):    19.00396                   -25.13644    
                            ---------------------------------------------------------------------------
                                              [TOTAL]:    40.52280     KG            -39.14328     KG  

                                                          NET (IN - OUT):    1.379513    
                                                   DISCREPANCY (PERCENT):    3.463238    
     1 CALLS TO GCG PACKAGE FOR TRANSPORT TIME STEP    48 IN FLOW TIME STEP     1 STRESS PERIOD     2
      2 TOTAL ITERATIONS
     1 CALLS TO GCG PACKAGE FOR TRANSPORT TIME STEP    49 IN FLOW TIME STEP     1 STRESS PERIOD     2
      2 TOTAL ITERATIONS
     1 CALLS TO GCG PACKAGE FOR TRANSPORT TIME STEP    50 IN FLOW TIME STEP     1 STRESS PERIOD     2
      2 TOTAL ITERATIONS



 >>>>>>>>>>>>>>>>>>>>>>>>>>>>>>>>>>>>>>>>>>>>>>>>>>>>>>>FOR COMPONENT NO. 01<<<<<<<<<<<<<<<<<<<<<<<<<<<<<<<<<<<<<<<<<<<<<<<<<<<<<<<


                                            -------------------------------------------
                                                      TRANSPORT STEP NO.   50
                                            -------------------------------------------

 TOTAL ELAPSED TIME SINCE BEGINNING OF SIMULATION =   1641.600    S   
 .....................................................................

 TOTAL PARTICLES USED IN THE CURRENT STEP =      1586
 PARTICLES ADDED AT BEGINNING OF THE STEP =         0
 PARTICLES REMOVED AT END OF LAST STEP    =         0

                     CUMULATIVE MASS BUDGETS AT END OF TRANSPORT STEP   50, TIME STEP    1, STRESS PERIOD    2
                     -----------------------------------------------------------------------------------------

                                                             IN                           OUT
                                                      ----------------             ----------------
                               CONSTANT CONCENTRATION:    12.61073                   -2.224296    
                                        CONSTANT HEAD:    0.000000                  -0.8309129E-07
                               1ST/0TH ORDER REACTION:    0.000000                    0.000000    
                               MASS STOR (FLOW MODEL):    0.000000                    0.000000    
                                MASS STORAGE (SOLUTE):    9.193646                   -12.05443    
                                MASS STORAGE (SORBED):    19.61311                   -25.71612    
                            ---------------------------------------------------------------------------
                                              [TOTAL]:    41.41749     KG            -39.99485     KG  

                                                          NET (IN - OUT):    1.422642    
                                                   DISCREPANCY (PERCENT):    3.494905    
     1 CALLS TO GCG PACKAGE FOR TRANSPORT TIME STEP    51 IN FLOW TIME STEP     1 STRESS PERIOD     2
      2 TOTAL ITERATIONS
     1 CALLS TO GCG PACKAGE FOR TRANSPORT TIME STEP    52 IN FLOW TIME STEP     1 STRESS PERIOD     2
      2 TOTAL ITERATIONS
     1 CALLS TO GCG PACKAGE FOR TRANSPORT TIME STEP    53 IN FLOW TIME STEP     1 STRESS PERIOD     2
      2 TOTAL ITERATIONS



 >>>>>>>>>>>>>>>>>>>>>>>>>>>>>>>>>>>>>>>>>>>>>>>>>>>>>>>FOR COMPONENT NO. 01<<<<<<<<<<<<<<<<<<<<<<<<<<<<<<<<<<<<<<<<<<<<<<<<<<<<<<<


                                            -------------------------------------------
                                                      TRANSPORT STEP NO.   53
                                            -------------------------------------------

 TOTAL ELAPSED TIME SINCE BEGINNING OF SIMULATION =   1732.800    S   
 .....................................................................

 TOTAL PARTICLES USED IN THE CURRENT STEP =      1576
 PARTICLES ADDED AT BEGINNING OF THE STEP =         0
 PARTICLES REMOVED AT END OF LAST STEP    =         0

                     CUMULATIVE MASS BUDGETS AT END OF TRANSPORT STEP   53, TIME STEP    1, STRESS PERIOD    2
                     -----------------------------------------------------------------------------------------

                                                             IN                           OUT
                                                      ----------------             ----------------
                               CONSTANT CONCENTRATION:    12.61073                   -2.224408    
                                        CONSTANT HEAD:    0.000000                  -0.4041565E-06
                               1ST/0TH ORDER REACTION:    0.000000                    0.000000    
                               MASS STOR (FLOW MODEL):    0.000000                    0.000000    
                                MASS STORAGE (SOLUTE):    9.449625                   -12.30982    
                                MASS STORAGE (SORBED):    20.15919                   -26.26094    
                            ---------------------------------------------------------------------------
                                              [TOTAL]:    42.21955     KG            -40.79517     KG  

                                                          NET (IN - OUT):    1.424381    
                                                   DISCREPANCY (PERCENT):    3.431635    
     1 CALLS TO GCG PACKAGE FOR TRANSPORT TIME STEP    54 IN FLOW TIME STEP     1 STRESS PERIOD     2
      2 TOTAL ITERATIONS
     1 CALLS TO GCG PACKAGE FOR TRANSPORT TIME STEP    55 IN FLOW TIME STEP     1 STRESS PERIOD     2
      2 TOTAL ITERATIONS
     1 CALLS TO GCG PACKAGE FOR TRANSPORT TIME STEP    56 IN FLOW TIME STEP     1 STRESS PERIOD     2
      2 TOTAL ITERATIONS



 >>>>>>>>>>>>>>>>>>>>>>>>>>>>>>>>>>>>>>>>>>>>>>>>>>>>>>>FOR COMPONENT NO. 01<<<<<<<<<<<<<<<<<<<<<<<<<<<<<<<<<<<<<<<<<<<<<<<<<<<<<<<


                                            -------------------------------------------
                                                      TRANSPORT STEP NO.   56
                                            -------------------------------------------

 TOTAL ELAPSED TIME SINCE BEGINNING OF SIMULATION =   1824.000    S   
 .....................................................................

 TOTAL PARTICLES USED IN THE CURRENT STEP =      1640
 PARTICLES ADDED AT BEGINNING OF THE STEP =        32
 PARTICLES REMOVED AT END OF LAST STEP    =         0

                     CUMULATIVE MASS BUDGETS AT END OF TRANSPORT STEP   56, TIME STEP    1, STRESS PERIOD    2
                     -----------------------------------------------------------------------------------------

                                                             IN                           OUT
                                                      ----------------             ----------------
                               CONSTANT CONCENTRATION:    12.61073                   -2.224493    
                                        CONSTANT HEAD:    0.000000                  -0.1709332E-05
                               1ST/0TH ORDER REACTION:    0.000000                    0.000000    
                               MASS STOR (FLOW MODEL):    0.000000                    0.000000    
                                MASS STORAGE (SOLUTE):    9.703179                   -12.55752    
                                MASS STORAGE (SORBED):    20.70011                   -26.78938    
                            ---------------------------------------------------------------------------
                                              [TOTAL]:    43.01402     KG            -41.57139     KG  

                                                          NET (IN - OUT):    1.442635    
                                                   DISCREPANCY (PERCENT):    3.411072    
     1 CALLS TO GCG PACKAGE FOR TRANSPORT TIME STEP    57 IN FLOW TIME STEP     1 STRESS PERIOD     2
      2 TOTAL ITERATIONS
     1 CALLS TO GCG PACKAGE FOR TRANSPORT TIME STEP    58 IN FLOW TIME STEP     1 STRESS PERIOD     2
      2 TOTAL ITERATIONS
     1 CALLS TO GCG PACKAGE FOR TRANSPORT TIME STEP    59 IN FLOW TIME STEP     1 STRESS PERIOD     2
      2 TOTAL ITERATIONS



 >>>>>>>>>>>>>>>>>>>>>>>>>>>>>>>>>>>>>>>>>>>>>>>>>>>>>>>FOR COMPONENT NO. 01<<<<<<<<<<<<<<<<<<<<<<<<<<<<<<<<<<<<<<<<<<<<<<<<<<<<<<<


                                            -------------------------------------------
                                                      TRANSPORT STEP NO.   59
                                            -------------------------------------------

 TOTAL ELAPSED TIME SINCE BEGINNING OF SIMULATION =   1915.200    S   
 .....................................................................

 TOTAL PARTICLES USED IN THE CURRENT STEP =      1672
 PARTICLES ADDED AT BEGINNING OF THE STEP =        32
 PARTICLES REMOVED AT END OF LAST STEP    =         0

                     CUMULATIVE MASS BUDGETS AT END OF TRANSPORT STEP   59, TIME STEP    1, STRESS PERIOD    2
                     -----------------------------------------------------------------------------------------

                                                             IN                           OUT
                                                      ----------------             ----------------
                               CONSTANT CONCENTRATION:    12.61073                   -2.224551    
                                        CONSTANT HEAD:    0.000000                  -0.6546494E-05
                               1ST/0TH ORDER REACTION:    0.000000                    0.000000    
                               MASS STOR (FLOW MODEL):    0.000000                    0.000000    
                                MASS STORAGE (SOLUTE):    9.936615                   -12.84408    
                                MASS STORAGE (SORBED):    21.19811                   -27.40070    
                            ---------------------------------------------------------------------------
                                              [TOTAL]:    43.74546     KG            -42.46933     KG  

                                                          NET (IN - OUT):    1.276123    
                                                   DISCREPANCY (PERCENT):    2.960334    
     1 CALLS TO GCG PACKAGE FOR TRANSPORT TIME STEP    60 IN FLOW TIME STEP     1 STRESS PERIOD     2
      2 TOTAL ITERATIONS
     1 CALLS TO GCG PACKAGE FOR TRANSPORT TIME STEP    61 IN FLOW TIME STEP     1 STRESS PERIOD     2
      2 TOTAL ITERATIONS
     1 CALLS TO GCG PACKAGE FOR TRANSPORT TIME STEP    62 IN FLOW TIME STEP     1 STRESS PERIOD     2
      2 TOTAL ITERATIONS



 >>>>>>>>>>>>>>>>>>>>>>>>>>>>>>>>>>>>>>>>>>>>>>>>>>>>>>>FOR COMPONENT NO. 01<<<<<<<<<<<<<<<<<<<<<<<<<<<<<<<<<<<<<<<<<<<<<<<<<<<<<<<


                                            -------------------------------------------
                                                      TRANSPORT STEP NO.   62
                                            -------------------------------------------

 TOTAL ELAPSED TIME SINCE BEGINNING OF SIMULATION =   2006.400    S   
 .....................................................................

 TOTAL PARTICLES USED IN THE CURRENT STEP =      1704
 PARTICLES ADDED AT BEGINNING OF THE STEP =         0
 PARTICLES REMOVED AT END OF LAST STEP    =         0

                     CUMULATIVE MASS BUDGETS AT END OF TRANSPORT STEP   62, TIME STEP    1, STRESS PERIOD    2
                     -----------------------------------------------------------------------------------------

                                                             IN                           OUT
                                                      ----------------             ----------------
                               CONSTANT CONCENTRATION:    12.61073                   -2.224583    
                                        CONSTANT HEAD:    0.000000                  -0.2346582E-04
                               1ST/0TH ORDER REACTION:    0.000000                    0.000000    
                               MASS STOR (FLOW MODEL):    0.000000                    0.000000    
                                MASS STORAGE (SOLUTE):    10.18259                   -13.08171    
                                MASS STORAGE (SORBED):    21.72285                   -27.90764    
                            ---------------------------------------------------------------------------
                                              [TOTAL]:    44.51618     KG            -43.21395     KG  

                                                          NET (IN - OUT):    1.302227    
                                                   DISCREPANCY (PERCENT):    2.968711    
     1 CALLS TO GCG PACKAGE FOR TRANSPORT TIME STEP    63 IN FLOW TIME STEP     1 STRESS PERIOD     2
      2 TOTAL ITERATIONS
     1 CALLS TO GCG PACKAGE FOR TRANSPORT TIME STEP    64 IN FLOW TIME STEP     1 STRESS PERIOD     2
      2 TOTAL ITERATIONS
     1 CALLS TO GCG PACKAGE FOR TRANSPORT TIME STEP    65 IN FLOW TIME STEP     1 STRESS PERIOD     2
      2 TOTAL ITERATIONS



 >>>>>>>>>>>>>>>>>>>>>>>>>>>>>>>>>>>>>>>>>>>>>>>>>>>>>>>FOR COMPONENT NO. 01<<<<<<<<<<<<<<<<<<<<<<<<<<<<<<<<<<<<<<<<<<<<<<<<<<<<<<<


                                            -------------------------------------------
                                                      TRANSPORT STEP NO.   65
                                            -------------------------------------------

 TOTAL ELAPSED TIME SINCE BEGINNING OF SIMULATION =   2097.600    S   
 .....................................................................

 TOTAL PARTICLES USED IN THE CURRENT STEP =      1714
 PARTICLES ADDED AT BEGINNING OF THE STEP =         0
 PARTICLES REMOVED AT END OF LAST STEP    =         0

                     CUMULATIVE MASS BUDGETS AT END OF TRANSPORT STEP   65, TIME STEP    1, STRESS PERIOD    2
                     -----------------------------------------------------------------------------------------

                                                             IN                           OUT
                                                      ----------------             ----------------
                               CONSTANT CONCENTRATION:    12.61073                   -2.224607    
                                        CONSTANT HEAD:    0.000000                  -0.7400101E-04
                               1ST/0TH ORDER REACTION:    0.000000                    0.000000    
                               MASS STOR (FLOW MODEL):    0.000000                    0.000000    
                                MASS STORAGE (SOLUTE):    10.41661                   -13.31264    
                                MASS STORAGE (SORBED):    22.22210                   -28.40030    
                            ---------------------------------------------------------------------------
                                              [TOTAL]:    45.24944     KG            -43.93761     KG  

                                                          NET (IN - OUT):    1.311825    
                                                   DISCREPANCY (PERCENT):    2.941738    
     1 CALLS TO GCG PACKAGE FOR TRANSPORT TIME STEP    66 IN FLOW TIME STEP     1 STRESS PERIOD     2
      2 TOTAL ITERATIONS
     1 CALLS TO GCG PACKAGE FOR TRANSPORT TIME STEP    67 IN FLOW TIME STEP     1 STRESS PERIOD     2
      2 TOTAL ITERATIONS
     1 CALLS TO GCG PACKAGE FOR TRANSPORT TIME STEP    68 IN FLOW TIME STEP     1 STRESS PERIOD     2
      2 TOTAL ITERATIONS



 >>>>>>>>>>>>>>>>>>>>>>>>>>>>>>>>>>>>>>>>>>>>>>>>>>>>>>>FOR COMPONENT NO. 01<<<<<<<<<<<<<<<<<<<<<<<<<<<<<<<<<<<<<<<<<<<<<<<<<<<<<<<


                                            -------------------------------------------
                                                      TRANSPORT STEP NO.   68
                                            -------------------------------------------

 TOTAL ELAPSED TIME SINCE BEGINNING OF SIMULATION =   2188.800    S   
 .....................................................................

 TOTAL PARTICLES USED IN THE CURRENT STEP =      1778
 PARTICLES ADDED AT BEGINNING OF THE STEP =        32
 PARTICLES REMOVED AT END OF LAST STEP    =         0

                     CUMULATIVE MASS BUDGETS AT END OF TRANSPORT STEP   68, TIME STEP    1, STRESS PERIOD    2
                     -----------------------------------------------------------------------------------------

                                                             IN                           OUT
                                                      ----------------             ----------------
                               CONSTANT CONCENTRATION:    12.61073                   -2.224624    
                                        CONSTANT HEAD:    0.000000                  -0.2088996E-03
                               1ST/0TH ORDER REACTION:    0.000000                    0.000000    
                               MASS STOR (FLOW MODEL):    0.000000                    0.000000    
                                MASS STORAGE (SOLUTE):    10.65007                   -13.53759    
                                MASS STORAGE (SORBED):    22.72015                   -28.88020    
                            ---------------------------------------------------------------------------
                                              [TOTAL]:    45.98095     KG            -44.64262     KG  

                                                          NET (IN - OUT):    1.338329    
                                                   DISCREPANCY (PERCENT):    2.953601    
     1 CALLS TO GCG PACKAGE FOR TRANSPORT TIME STEP    69 IN FLOW TIME STEP     1 STRESS PERIOD     2
      2 TOTAL ITERATIONS
     1 CALLS TO GCG PACKAGE FOR TRANSPORT TIME STEP    70 IN FLOW TIME STEP     1 STRESS PERIOD     2
      2 TOTAL ITERATIONS
     1 CALLS TO GCG PACKAGE FOR TRANSPORT TIME STEP    71 IN FLOW TIME STEP     1 STRESS PERIOD     2
      2 TOTAL ITERATIONS



 >>>>>>>>>>>>>>>>>>>>>>>>>>>>>>>>>>>>>>>>>>>>>>>>>>>>>>>FOR COMPONENT NO. 01<<<<<<<<<<<<<<<<<<<<<<<<<<<<<<<<<<<<<<<<<<<<<<<<<<<<<<<


                                            -------------------------------------------
                                                      TRANSPORT STEP NO.   71
                                            -------------------------------------------

 TOTAL ELAPSED TIME SINCE BEGINNING OF SIMULATION =   2280.000    S   
 .....................................................................

 TOTAL PARTICLES USED IN THE CURRENT STEP =      1756
 PARTICLES ADDED AT BEGINNING OF THE STEP =        64
 PARTICLES REMOVED AT END OF LAST STEP    =        86

                     CUMULATIVE MASS BUDGETS AT END OF TRANSPORT STEP   71, TIME STEP    1, STRESS PERIOD    2
                     -----------------------------------------------------------------------------------------

                                                             IN                           OUT
                                                      ----------------             ----------------
                               CONSTANT CONCENTRATION:    12.61073                   -2.224637    
                                        CONSTANT HEAD:    0.000000                  -0.5403151E-03
                               1ST/0TH ORDER REACTION:    0.000000                    0.000000    
                               MASS STOR (FLOW MODEL):    0.000000                    0.000000    
                                MASS STORAGE (SOLUTE):    10.86735                   -13.75725    
                                MASS STORAGE (SORBED):    23.18367                   -29.34880    
                            ---------------------------------------------------------------------------
                                              [TOTAL]:    46.66175     KG            -45.33123     KG  

                                                          NET (IN - OUT):    1.330524    
                                                   DISCREPANCY (PERCENT):    2.892665    
     1 CALLS TO GCG PACKAGE FOR TRANSPORT TIME STEP    72 IN FLOW TIME STEP     1 STRESS PERIOD     2
      2 TOTAL ITERATIONS
     1 CALLS TO GCG PACKAGE FOR TRANSPORT TIME STEP    73 IN FLOW TIME STEP     1 STRESS PERIOD     2
      2 TOTAL ITERATIONS
[...]
      2 TOTAL ITERATIONS



 >>>>>>>>>>>>>>>>>>>>>>>>>>>>>>>>>>>>>>>>>>>>>>>>>>>>>>>FOR COMPONENT NO. 01<<<<<<<<<<<<<<<<<<<<<<<<<<<<<<<<<<<<<<<<<<<<<<<<<<<<<<<


                                            -------------------------------------------
                                                      TRANSPORT STEP NO.  275
                                            -------------------------------------------

 TOTAL ELAPSED TIME SINCE BEGINNING OF SIMULATION =   8481.600    S   
 .....................................................................

 TOTAL PARTICLES USED IN THE CURRENT STEP =      1046
 PARTICLES ADDED AT BEGINNING OF THE STEP =        10
 PARTICLES REMOVED AT END OF LAST STEP    =         0

                     CUMULATIVE MASS BUDGETS AT END OF TRANSPORT STEP  275, TIME STEP    1, STRESS PERIOD    2
                     -----------------------------------------------------------------------------------------

                                                             IN                           OUT
                                                      ----------------             ----------------
                               CONSTANT CONCENTRATION:    12.61073                   -2.224658    
                                        CONSTANT HEAD:    0.000000                   -8.943674    
                               1ST/0TH ORDER REACTION:    0.000000                    0.000000    
                               MASS STOR (FLOW MODEL):    0.000000                    0.000000    
                                MASS STORAGE (SOLUTE):    16.47660                   -16.47675    
                                MASS STORAGE (SORBED):    35.15008                   -35.15041    
                            ---------------------------------------------------------------------------
                                              [TOTAL]:    64.23741     KG            -62.79549     KG  

                                                          NET (IN - OUT):    1.441921    
                                                   DISCREPANCY (PERCENT):    2.270154    
     1 CALLS TO GCG PACKAGE FOR TRANSPORT TIME STEP   276 IN FLOW TIME STEP     1 STRESS PERIOD     2
      2 TOTAL ITERATIONS
     1 CALLS TO GCG PACKAGE FOR TRANSPORT TIME STEP   277 IN FLOW TIME STEP     1 STRESS PERIOD     2
      2 TOTAL ITERATIONS
     1 CALLS TO GCG PACKAGE FOR TRANSPORT TIME STEP   278 IN FLOW TIME STEP     1 STRESS PERIOD     2
      2 TOTAL ITERATIONS



 >>>>>>>>>>>>>>>>>>>>>>>>>>>>>>>>>>>>>>>>>>>>>>>>>>>>>>>FOR COMPONENT NO. 01<<<<<<<<<<<<<<<<<<<<<<<<<<<<<<<<<<<<<<<<<<<<<<<<<<<<<<<


                                            -------------------------------------------
                                                      TRANSPORT STEP NO.  278
                                            -------------------------------------------

 TOTAL ELAPSED TIME SINCE BEGINNING OF SIMULATION =   8572.800    S   
 .....................................................................

 TOTAL PARTICLES USED IN THE CURRENT STEP =      1016
 PARTICLES ADDED AT BEGINNING OF THE STEP =        42
 PARTICLES REMOVED AT END OF LAST STEP    =        82

                     CUMULATIVE MASS BUDGETS AT END OF TRANSPORT STEP  278, TIME STEP    1, STRESS PERIOD    2
                     -----------------------------------------------------------------------------------------

                                                             IN                           OUT
                                                      ----------------             ----------------
                               CONSTANT CONCENTRATION:    12.61073                   -2.224658    
                                        CONSTANT HEAD:    0.000000                   -8.943786    
                               1ST/0TH ORDER REACTION:    0.000000                    0.000000    
                               MASS STOR (FLOW MODEL):    0.000000                    0.000000    
                                MASS STORAGE (SOLUTE):    16.47663                   -16.47675    
                                MASS STORAGE (SORBED):    35.15016                   -35.15041    
                            ---------------------------------------------------------------------------
                                              [TOTAL]:    64.23753     KG            -62.79560     KG  

                                                          NET (IN - OUT):    1.441925    
                                                   DISCREPANCY (PERCENT):    2.270156    
     1 CALLS TO GCG PACKAGE FOR TRANSPORT TIME STEP   279 IN FLOW TIME STEP     1 STRESS PERIOD     2
      2 TOTAL ITERATIONS
     1 CALLS TO GCG PACKAGE FOR TRANSPORT TIME STEP   280 IN FLOW TIME STEP     1 STRESS PERIOD     2
      2 TOTAL ITERATIONS
     1 CALLS TO GCG PACKAGE FOR TRANSPORT TIME STEP   281 IN FLOW TIME STEP     1 STRESS PERIOD     2
      2 TOTAL ITERATIONS



 >>>>>>>>>>>>>>>>>>>>>>>>>>>>>>>>>>>>>>>>>>>>>>>>>>>>>>>FOR COMPONENT NO. 01<<<<<<<<<<<<<<<<<<<<<<<<<<<<<<<<<<<<<<<<<<<<<<<<<<<<<<<


                                            -------------------------------------------
                                                      TRANSPORT STEP NO.  281
                                            -------------------------------------------

 TOTAL ELAPSED TIME SINCE BEGINNING OF SIMULATION =   8664.000    S   
 .....................................................................

 TOTAL PARTICLES USED IN THE CURRENT STEP =      1036
 PARTICLES ADDED AT BEGINNING OF THE STEP =        10
 PARTICLES REMOVED AT END OF LAST STEP    =         0

                     CUMULATIVE MASS BUDGETS AT END OF TRANSPORT STEP  281, TIME STEP    1, STRESS PERIOD    2
                     -----------------------------------------------------------------------------------------

                                                             IN                           OUT
                                                      ----------------             ----------------
                               CONSTANT CONCENTRATION:    12.61073                   -2.224658    
                                        CONSTANT HEAD:    0.000000                   -8.943871    
                               1ST/0TH ORDER REACTION:    0.000000                    0.000000    
                               MASS STOR (FLOW MODEL):    0.000000                    0.000000    
                                MASS STORAGE (SOLUTE):    16.47666                   -16.47675    
                                MASS STORAGE (SORBED):    35.15022                   -35.15041    
                            ---------------------------------------------------------------------------
                                              [TOTAL]:    64.23762     KG            -62.79569     KG  

                                                          NET (IN - OUT):    1.441929    
                                                   DISCREPANCY (PERCENT):    2.270159    
     1 CALLS TO GCG PACKAGE FOR TRANSPORT TIME STEP   282 IN FLOW TIME STEP     1 STRESS PERIOD     2
      2 TOTAL ITERATIONS
     1 CALLS TO GCG PACKAGE FOR TRANSPORT TIME STEP   283 IN FLOW TIME STEP     1 STRESS PERIOD     2
      2 TOTAL ITERATIONS
     1 CALLS TO GCG PACKAGE FOR TRANSPORT TIME STEP   284 IN FLOW TIME STEP     1 STRESS PERIOD     2
      2 TOTAL ITERATIONS



 >>>>>>>>>>>>>>>>>>>>>>>>>>>>>>>>>>>>>>>>>>>>>>>>>>>>>>>FOR COMPONENT NO. 01<<<<<<<<<<<<<<<<<<<<<<<<<<<<<<<<<<<<<<<<<<<<<<<<<<<<<<<


                                            -------------------------------------------
                                                      TRANSPORT STEP NO.  284
                                            -------------------------------------------

 TOTAL ELAPSED TIME SINCE BEGINNING OF SIMULATION =   8755.200    S   
 .....................................................................

 TOTAL PARTICLES USED IN THE CURRENT STEP =      1056
 PARTICLES ADDED AT BEGINNING OF THE STEP =        10
 PARTICLES REMOVED AT END OF LAST STEP    =         0

                     CUMULATIVE MASS BUDGETS AT END OF TRANSPORT STEP  284, TIME STEP    1, STRESS PERIOD    2
                     -----------------------------------------------------------------------------------------

                                                             IN                           OUT
                                                      ----------------             ----------------
                               CONSTANT CONCENTRATION:    12.61073                   -2.224658    
                                        CONSTANT HEAD:    0.000000                   -8.943938    
                               1ST/0TH ORDER REACTION:    0.000000                    0.000000    
                               MASS STOR (FLOW MODEL):    0.000000                    0.000000    
                                MASS STORAGE (SOLUTE):    16.47668                   -16.47675    
                                MASS STORAGE (SORBED):    35.15027                   -35.15041    
                            ---------------------------------------------------------------------------
                                              [TOTAL]:    64.23769     KG            -62.79575     KG  

                                                          NET (IN - OUT):    1.441933    
                                                   DISCREPANCY (PERCENT):    2.270162    
     1 CALLS TO GCG PACKAGE FOR TRANSPORT TIME STEP   285 IN FLOW TIME STEP     1 STRESS PERIOD     2
      2 TOTAL ITERATIONS
     1 CALLS TO GCG PACKAGE FOR TRANSPORT TIME STEP   286 IN FLOW TIME STEP     1 STRESS PERIOD     2
      2 TOTAL ITERATIONS
     1 CALLS TO GCG PACKAGE FOR TRANSPORT TIME STEP   287 IN FLOW TIME STEP     1 STRESS PERIOD     2
      2 TOTAL ITERATIONS



 >>>>>>>>>>>>>>>>>>>>>>>>>>>>>>>>>>>>>>>>>>>>>>>>>>>>>>>FOR COMPONENT NO. 01<<<<<<<<<<<<<<<<<<<<<<<<<<<<<<<<<<<<<<<<<<<<<<<<<<<<<<<


                                            -------------------------------------------
                                                      TRANSPORT STEP NO.  287
                                            -------------------------------------------

 TOTAL ELAPSED TIME SINCE BEGINNING OF SIMULATION =   8846.400    S   
 .....................................................................

 TOTAL PARTICLES USED IN THE CURRENT STEP =      1026
 PARTICLES ADDED AT BEGINNING OF THE STEP =        10
 PARTICLES REMOVED AT END OF LAST STEP    =         0

                     CUMULATIVE MASS BUDGETS AT END OF TRANSPORT STEP  287, TIME STEP    1, STRESS PERIOD    2
                     -----------------------------------------------------------------------------------------

                                                             IN                           OUT
                                                      ----------------             ----------------
                               CONSTANT CONCENTRATION:    12.61073                   -2.224658    
                                        CONSTANT HEAD:    0.000000                   -8.943989    
                               1ST/0TH ORDER REACTION:    0.000000                    0.000000    
                               MASS STOR (FLOW MODEL):    0.000000                    0.000000    
                                MASS STORAGE (SOLUTE):    16.47670                   -16.47675    
                                MASS STORAGE (SORBED):    35.15030                   -35.15041    
                            ---------------------------------------------------------------------------
                                              [TOTAL]:    64.23774     KG            -62.79581     KG  

                                                          NET (IN - OUT):    1.441933    
                                                   DISCREPANCY (PERCENT):    2.270160    
     1 CALLS TO GCG PACKAGE FOR TRANSPORT TIME STEP   288 IN FLOW TIME STEP     1 STRESS PERIOD     2
      2 TOTAL ITERATIONS
     1 CALLS TO GCG PACKAGE FOR TRANSPORT TIME STEP   289 IN FLOW TIME STEP     1 STRESS PERIOD     2
      2 TOTAL ITERATIONS
     1 CALLS TO GCG PACKAGE FOR TRANSPORT TIME STEP   290 IN FLOW TIME STEP     1 STRESS PERIOD     2
      2 TOTAL ITERATIONS



 >>>>>>>>>>>>>>>>>>>>>>>>>>>>>>>>>>>>>>>>>>>>>>>>>>>>>>>FOR COMPONENT NO. 01<<<<<<<<<<<<<<<<<<<<<<<<<<<<<<<<<<<<<<<<<<<<<<<<<<<<<<<


                                            -------------------------------------------
                                                      TRANSPORT STEP NO.  290
                                            -------------------------------------------

 TOTAL ELAPSED TIME SINCE BEGINNING OF SIMULATION =   8937.600    S   
 .....................................................................

 TOTAL PARTICLES USED IN THE CURRENT STEP =      1046
 PARTICLES ADDED AT BEGINNING OF THE STEP =        10
 PARTICLES REMOVED AT END OF LAST STEP    =         0

                     CUMULATIVE MASS BUDGETS AT END OF TRANSPORT STEP  290, TIME STEP    1, STRESS PERIOD    2
                     -----------------------------------------------------------------------------------------

                                                             IN                           OUT
                                                      ----------------             ----------------
                               CONSTANT CONCENTRATION:    12.61073                   -2.224658    
                                        CONSTANT HEAD:    0.000000                   -8.944027    
                               1ST/0TH ORDER REACTION:    0.000000                    0.000000    
                               MASS STOR (FLOW MODEL):    0.000000                    0.000000    
                                MASS STORAGE (SOLUTE):    16.47672                   -16.47675    
                                MASS STORAGE (SORBED):    35.15033                   -35.15041    
                            ---------------------------------------------------------------------------
                                              [TOTAL]:    64.23778     KG            -62.79585     KG  

                                                          NET (IN - OUT):    1.441933    
                                                   DISCREPANCY (PERCENT):    2.270159    
     1 CALLS TO GCG PACKAGE FOR TRANSPORT TIME STEP   291 IN FLOW TIME STEP     1 STRESS PERIOD     2
      2 TOTAL ITERATIONS
     1 CALLS TO GCG PACKAGE FOR TRANSPORT TIME STEP   292 IN FLOW TIME STEP     1 STRESS PERIOD     2
      2 TOTAL ITERATIONS
     1 CALLS TO GCG PACKAGE FOR TRANSPORT TIME STEP   293 IN FLOW TIME STEP     1 STRESS PERIOD     2
      2 TOTAL ITERATIONS



 >>>>>>>>>>>>>>>>>>>>>>>>>>>>>>>>>>>>>>>>>>>>>>>>>>>>>>>FOR COMPONENT NO. 01<<<<<<<<<<<<<<<<<<<<<<<<<<<<<<<<<<<<<<<<<<<<<<<<<<<<<<<


                                            -------------------------------------------
                                                      TRANSPORT STEP NO.  293
                                            -------------------------------------------

 TOTAL ELAPSED TIME SINCE BEGINNING OF SIMULATION =   9028.800    S   
 .....................................................................

 TOTAL PARTICLES USED IN THE CURRENT STEP =      1016
 PARTICLES ADDED AT BEGINNING OF THE STEP =        42
 PARTICLES REMOVED AT END OF LAST STEP    =        82

                     CUMULATIVE MASS BUDGETS AT END OF TRANSPORT STEP  293, TIME STEP    1, STRESS PERIOD    2
                     -----------------------------------------------------------------------------------------

                                                             IN                           OUT
                                                      ----------------             ----------------
                               CONSTANT CONCENTRATION:    12.61073                   -2.224658    
                                        CONSTANT HEAD:    0.000000                   -8.944056    
                               1ST/0TH ORDER REACTION:    0.000000                    0.000000    
                               MASS STOR (FLOW MODEL):    0.000000                    0.000000    
                                MASS STORAGE (SOLUTE):    16.47672                   -16.47675    
                                MASS STORAGE (SORBED):    35.15035                   -35.15041    
                            ---------------------------------------------------------------------------
                                              [TOTAL]:    64.23781     KG            -62.79587     KG  

                                                          NET (IN - OUT):    1.441936    
                                                   DISCREPANCY (PERCENT):    2.270164    
     1 CALLS TO GCG PACKAGE FOR TRANSPORT TIME STEP   294 IN FLOW TIME STEP     1 STRESS PERIOD     2
      2 TOTAL ITERATIONS
     1 CALLS TO GCG PACKAGE FOR TRANSPORT TIME STEP   295 IN FLOW TIME STEP     1 STRESS PERIOD     2
      2 TOTAL ITERATIONS
     1 CALLS TO GCG PACKAGE FOR TRANSPORT TIME STEP   296 IN FLOW TIME STEP     1 STRESS PERIOD     2
      2 TOTAL ITERATIONS
  MAXIMUM CONCENTRATION CHANGES FOR EACH ITERATION:
  MAX. CHANGE LAYER,ROW,COL MAX. CHANGE LAYER,ROW,COL MAX. CHANGE LAYER,ROW,COL MAX. CHANGE LAYER,ROW,COL MAX. CHANGE LAYER,ROW,COL
 ------------------------------------------------------------------------------------------------------------------------------------
   0.5927E-01 (  1,  1,101)   0.000     (  1,  1,  1)



 >>>>>>>>>>>>>>>>>>>>>>>>>>>>>>>>>>>>>>>>>>>>>>>>>>>>>>>FOR COMPONENT NO. 01<<<<<<<<<<<<<<<<<<<<<<<<<<<<<<<<<<<<<<<<<<<<<<<<<<<<<<<


                                            -------------------------------------------
                                                      TRANSPORT STEP NO.  296
                                            -------------------------------------------

 TOTAL ELAPSED TIME SINCE BEGINNING OF SIMULATION =   9120.000    S   
 .....................................................................

 TOTAL PARTICLES USED IN THE CURRENT STEP =      1036
 PARTICLES ADDED AT BEGINNING OF THE STEP =        10
 PARTICLES REMOVED AT END OF LAST STEP    =         0

                     CUMULATIVE MASS BUDGETS AT END OF TRANSPORT STEP  296, TIME STEP    1, STRESS PERIOD    2
                     -----------------------------------------------------------------------------------------

                                                             IN                           OUT
                                                      ----------------             ----------------
                               CONSTANT CONCENTRATION:    12.61073                   -2.224658    
                                        CONSTANT HEAD:    0.000000                   -8.944077    
                               1ST/0TH ORDER REACTION:    0.000000                    0.000000    
                               MASS STOR (FLOW MODEL):    0.000000                    0.000000    
                                MASS STORAGE (SOLUTE):    16.47673                   -16.47675    
                                MASS STORAGE (SORBED):    35.15037                   -35.15041    
                            ---------------------------------------------------------------------------
                                              [TOTAL]:    64.23783     KG            -62.79589     KG  

                                                          NET (IN - OUT):    1.441936    
                                                   DISCREPANCY (PERCENT):    2.270163    
  ----- 
 | M T |
 | 3 D | END OF MODEL OUTPUT
  ----- 
