Get the name of the MODPATH simulation file.
Read the first two records of the simulation file to get mpnamFile and mplistFile ...
Allocate rectangular unstructured grid component.
Allocate time discretization data component ...
Allocate disMf6Grid.
Read DIS binary grid file.
Read time discretization data component ...
 
 ----------------------------------------------------------
 Cell connection data:
 ----------------------------------------------------------
 Format has two lines for each cell, listed by cell number.
 Line 1: Cell connections
 Line 1: Face assignment codes
 ----------------------------------------------------------
        1       2      21     421
        0   20101   30101   50101
 
        2       1       3      22     422
        0   10101   20101   30101   50101
 
        3       2       4      23     423
        0   10101   20101   30101   50101
 
        4       3       5      24     424
        0   10101   20101   30101   50101
 
        5       4       6      25     425
        0   10101   20101   30101   50101
 
        6       5       7      26     426
        0   10101   20101   30101   50101
 
        7       6       8      27     427
        0   10101   20101   30101   50101
 
        8       7       9      28     428
        0   10101   20101   30101   50101
 
        9       8      10      29     429
        0   10101   20101   30101   50101
 
       10       9      11      30     430
        0   10101   20101   30101   50101
 
       11      10      12      31     431
        0   10101   20101   30101   50101
 
       12      11      13      32     432
        0   10101   20101   30101   50101
 
       13      12      14      33     433
        0   10101   20101   30101   50101
 
       14      13      15      34     434
        0   10101   20101   30101   50101
 
       15      14      16      35     435
        0   10101   20101   30101   50101
 
       16      15      17      36     436
        0   10101   20101   30101   50101
 
       17      16      18      37     437
        0   10101   20101   30101   50101
 
       18      17      19      38     438
        0   10101   20101   30101   50101
 
       19      18      20      39     439
        0   10101   20101   30101   50101
 
       20      19      40     440
        0   10101   30101   50101
 
       21       1      22      41     441
        0   40101   20101   30101   50101
 
       22       2      21      23      42     442
        0   40101   10101   20101   30101   50101
 
       23       3      22      24      43     443
        0   40101   10101   20101   30101   50101
 
       24       4      23      25      44     444
        0   40101   10101   20101   30101   50101
 
       25       5      24      26      45     445
        0   40101   10101   20101   30101   50101
 
       26       6      25      27      46     446
        0   40101   10101   20101   30101   50101
 
       27       7      26      28      47     447
        0   40101   10101   20101   30101   50101
 
       28       8      27      29      48     448
        0   40101   10101   20101   30101   50101
 
       29       9      28      30      49     449
        0   40101   10101   20101   30101   50101
 
       30      10      29      31      50     450
        0   40101   10101   20101   30101   50101
 
       31      11      30      32      51     451
        0   40101   10101   20101   30101   50101
 
       32      12      31      33      52     452
        0   40101   10101   20101   30101   50101
 
       33      13      32      34      53     453
        0   40101   10101   20101   30101   50101
 
       34      14      33      35      54     454
        0   40101   10101   20101   30101   50101
 
       35      15      34      36      55     455
        0   40101   10101   20101   30101   50101
 
       36      16      35      37      56     456
        0   40101   10101   20101   30101   50101
 
       37      17      36      38      57     457
        0   40101   10101   20101   30101   50101
 
       38      18      37      39      58     458
        0   40101   10101   20101   30101   50101
 
       39      19      38      40      59     459
        0   40101   10101   20101   30101   50101
 
       40      20      39      60     460
        0   40101   10101   30101   50101
 
       41      21      42      61     461
        0   40101   20101   30101   50101
 
       42      22      41      43      62     462
        0   40101   10101   20101   30101   50101
 
       43      23      42      44      63     463
        0   40101   10101   20101   30101   50101
 
       44      24      43      45      64     464
        0   40101   10101   20101   30101   50101
 
       45      25      44      46      65     465
        0   40101   10101   20101   30101   50101
 
       46      26      45      47      66     466
        0   40101   10101   20101   30101   50101
 
       47      27      46      48      67     467
        0   40101   10101   20101   30101   50101
 
       48      28      47      49      68     468
        0   40101   10101   20101   30101   50101
 
       49      29      48      50      69     469
        0   40101   10101   20101   30101   50101
 
       50      30      49      51      70     470
        0   40101   10101   20101   30101   50101
 
       51      31      50      52      71     471
        0   40101   10101   20101   30101   50101
 
       52      32      51      53      72     472
        0   40101   10101   20101   30101   50101
 
       53      33      52      54      73     473
        0   40101   10101   20101   30101   50101
 
       54      34      53      55      74     474
        0   40101   10101   20101   30101   50101
 
       55      35      54      56      75     475
        0   40101   10101   20101   30101   50101
 
       56      36      55      57      76     476
        0   40101   10101   20101   30101   50101
 
       57      37      56      58      77     477
        0   40101   10101   20101   30101   50101
 
       58      38      57      59      78     478
        0   40101   10101   20101   30101   50101
 
       59      39      58      60      79     479
        0   40101   10101   20101   30101   50101
 
       60      40      59      80     480
        0   40101   10101   30101   50101
 
       61      41      62      81     481
        0   40101   20101   30101   50101
 
       62      42      61      63      82     482
        0   40101   10101   20101   30101   50101
 
       63      43      62      64      83     483
        0   40101   10101   20101   30101   50101
 
       64      44      63      65      84     484
        0   40101   10101   20101   30101   50101
 
       65      45      64      66      85     485
        0   40101   10101   20101   30101   50101
 
       66      46      65      67      86     486
        0   40101   10101   20101   30101   50101
 
       67      47      66      68      87     487
        0   40101   10101   20101   30101   50101
 
       68      48      67      69      88     488
        0   40101   10101   20101   30101   50101
 
       69      49      68      70      89     489
        0   40101   10101   20101   30101   50101
 
       70      50      69      71      90     490
        0   40101   10101   20101   30101   50101
 
       71      51      70      72      91     491
        0   40101   10101   20101   30101   50101
 
       72      52      71      73      92     492
        0   40101   10101   20101   30101   50101
 
       73      53      72      74      93     493
        0   40101   10101   20101   30101   50101
 
       74      54      73      75      94     494
        0   40101   10101   20101   30101   50101
 
       75      55      74      76      95     495
        0   40101   10101   20101   30101   50101
 
       76      56      75      77      96     496
        0   40101   10101   20101   30101   50101
 
       77      57      76      78      97     497
        0   40101   10101   20101   30101   50101
 
       78      58      77      79      98     498
        0   40101   10101   20101   30101   50101
 
       79      59      78      80      99     499
        0   40101   10101   20101   30101   50101
 
       80      60      79     100     500
        0   40101   10101   30101   50101
 
       81      61      82     101     501
        0   40101   20101   30101   50101
 
       82      62      81      83     102     502
        0   40101   10101   20101   30101   50101
 
       83      63      82      84     103     503
        0   40101   10101   20101   30101   50101
 
       84      64      83      85     104     504
        0   40101   10101   20101   30101   50101
 
       85      65      84      86     105     505
        0   40101   10101   20101   30101   50101
 
       86      66      85      87     106     506
        0   40101   10101   20101   30101   50101
 
       87      67      86      88     107     507
        0   40101   10101   20101   30101   50101
 
       88      68      87      89     108     508
        0   40101   10101   20101   30101   50101
 
       89      69      88      90     109     509
        0   40101   10101   20101   30101   50101
 
       90      70      89      91     110     510
        0   40101   10101   20101   30101   50101
 
       91      71      90      92     111     511
        0   40101   10101   20101   30101   50101
 
       92      72      91      93     112     512
        0   40101   10101   20101   30101   50101
 
       93      73      92      94     113     513
        0   40101   10101   20101   30101   50101
 
       94      74      93      95     114     514
        0   40101   10101   20101   30101   50101
 
       95      75      94      96     115     515
        0   40101   10101   20101   30101   50101
 
       96      76      95      97     116     516
        0   40101   10101   20101   30101   50101
 
       97      77      96      98     117     517
        0   40101   10101   20101   30101   50101
 
       98      78      97      99     118     518
        0   40101   10101   20101   30101   50101
 
       99      79      98     100     119     519
        0   40101   10101   20101   30101   50101
 
      100      80      99     120     520
        0   40101   10101   30101   50101
 
      101      81     102     121     521
        0   40101   20101   30101   50101
 
      102      82     101     103     122     522
        0   40101   10101   20101   30101   50101
 
      103      83     102     104     123     523
        0   40101   10101   20101   30101   50101
 
      104      84     103     105     124     524
        0   40101   10101   20101   30101   50101
 
      105      85     104     106     125     525
        0   40101   10101   20101   30101   50101
 
      106      86     105     107     126     526
        0   40101   10101   20101   30101   50101
 
      107      87     106     108     127     527
        0   40101   10101   20101   30101   50101
 
      108      88     107     109     128     528
        0   40101   10101   20101   30101   50101
 
      109      89     108     110     129     529
        0   40101   10101   20101   30101   50101
 
      110      90     109     111     130     530
        0   40101   10101   20101   30101   50101
 
      111      91     110     112     131     531
        0   40101   10101   20101   30101   50101
 
      112      92     111     113     132     532
        0   40101   10101   20101   30101   50101
 
      113      93     112     114     133     533
        0   40101   10101   20101   30101   50101
 
      114      94     113     115     134     534
        0   40101   10101   20101   30101   50101
 
      115      95     114     116     135     535
        0   40101   10101   20101   30101   50101
 
      116      96     115     117     136     536
        0   40101   10101   20101   30101   50101
 
      117      97     116     118     137     537
        0   40101   10101   20101   30101   50101
 
      118      98     117     119     138     538
        0   40101   10101   20101   30101   50101
 
      119      99     118     120     139     539
        0   40101   10101   20101   30101   50101
 
      120     100     119     140     540
        0   40101   10101   30101   50101
 
      121     101     122     141     541
        0   40101   20101   30101   50101
 
      122     102     121     123     142     542
        0   40101   10101   20101   30101   50101
 
      123     103     122     124     143     543
        0   40101   10101   20101   30101   50101
 
      124     104     123     125     144     544
        0   40101   10101   20101   30101   50101
 
      125     105     124     126     145     545
        0   40101   10101   20101   30101   50101
 
      126     106     125     127     146     546
        0   40101   10101   20101   30101   50101
 
      127     107     126     128     147     547
        0   40101   10101   20101   30101   50101
 
      128     108     127     129     148     548
        0   40101   10101   20101   30101   50101
 
      129     109     128     130     149     549
        0   40101   10101   20101   30101   50101
 
      130     110     129     131     150     550
        0   40101   10101   20101   30101   50101
 
      131     111     130     132     151     551
        0   40101   10101   20101   30101   50101
 
      132     112     131     133     152     552
        0   40101   10101   20101   30101   50101
 
      133     113     132     134     153     553
        0   40101   10101   20101   30101   50101
 
      134     114     133     135     154     554
        0   40101   10101   20101   30101   50101
 
      135     115     134     136     155     555
        0   40101   10101   20101   30101   50101
 
      136     116     135     137     156     556
        0   40101   10101   20101   30101   50101
 
      137     117     136     138     157     557
        0   40101   10101   20101   30101   50101
 
      138     118     137     139     158     558
        0   40101   10101   20101   30101   50101
 
      139     119     138     140     159     559
        0   40101   10101   20101   30101   50101
 
      140     120     139     160     560
        0   40101   10101   30101   50101
 
      141     121     142     161     561
        0   40101   20101   30101   50101
 
      142     122     141     143     162     562
        0   40101   10101   20101   30101   50101
 
      143     123     142     144     163     563
        0   40101   10101   20101   30101   50101
 
      144     124     143     145     164     564
        0   40101   10101   20101   30101   50101
 
      145     125     144     146     165     565
        0   40101   10101   20101   30101   50101
 
      146     126     145     147     166     566
        0   40101   10101   20101   30101   50101
 
      147     127     146     148     167     567
        0   40101   10101   20101   30101   50101
 
      148     128     147     149     168     568
        0   40101   10101   20101   30101   50101
 
      149     129     148     150     169     569
        0   40101   10101   20101   30101   50101
 
      150     130     149     151     170     570
        0   40101   10101   20101   30101   50101
 
      151     131     150     152     171     571
        0   40101   10101   20101   30101   50101
 
      152     132     151     153     172     572
        0   40101   10101   20101   30101   50101
 
      153     133     152     154     173     573
        0   40101   10101   20101   30101   50101
 
      154     134     153     155     174     574
        0   40101   10101   20101   30101   50101
 
      155     135     154     156     175     575
        0   40101   10101   20101   30101   50101
 
      156     136     155     157     176     576
        0   40101   10101   20101   30101   50101
 
      157     137     156     158     177     577
        0   40101   10101   20101   30101   50101
 
      158     138     157     159     178     578
        0   40101   10101   20101   30101   50101
 
      159     139     158     160     179     579
        0   40101   10101   20101   30101   50101
 
      160     140     159     180     580
        0   40101   10101   30101   50101
 
      161     141     162     181     581
        0   40101   20101   30101   50101
 
      162     142     161     163     182     582
        0   40101   10101   20101   30101   50101
 
      163     143     162     164     183     583
        0   40101   10101   20101   30101   50101
 
      164     144     163     165     184     584
        0   40101   10101   20101   30101   50101
 
      165     145     164     166     185     585
        0   40101   10101   20101   30101   50101
 
      166     146     165     167     186     586
        0   40101   10101   20101   30101   50101
 
      167     147     166     168     187     587
        0   40101   10101   20101   30101   50101
 
      168     148     167     169     188     588
        0   40101   10101   20101   30101   50101
 
      169     149     168     170     189     589
        0   40101   10101   20101   30101   50101
 
      170     150     169     171     190     590
        0   40101   10101   20101   30101   50101
 
      171     151     170     172     191     591
        0   40101   10101   20101   30101   50101
 
      172     152     171     173     192     592
        0   40101   10101   20101   30101   50101
 
      173     153     172     174     193     593
        0   40101   10101   20101   30101   50101
 
      174     154     173     175     194     594
        0   40101   10101   20101   30101   50101
 
      175     155     174     176     195     595
        0   40101   10101   20101   30101   50101
 
      176     156     175     177     196     596
        0   40101   10101   20101   30101   50101
 
      177     157     176     178     197     597
        0   40101   10101   20101   30101   50101
 
      178     158     177     179     198     598
        0   40101   10101   20101   30101   50101
 
      179     159     178     180     199     599
        0   40101   10101   20101   30101   50101
 
      180     160     179     200     600
        0   40101   10101   30101   50101
 
      181     161     182     201     601
        0   40101   20101   30101   50101
 
      182     162     181     183     202     602
        0   40101   10101   20101   30101   50101
 
      183     163     182     184     203     603
        0   40101   10101   20101   30101   50101
 
      184     164     183     185     204     604
        0   40101   10101   20101   30101   50101
 
      185     165     184     186     205     605
        0   40101   10101   20101   30101   50101
 
      186     166     185     187     206     606
        0   40101   10101   20101   30101   50101
 
      187     167     186     188     207     607
        0   40101   10101   20101   30101   50101
 
      188     168     187     189     208     608
        0   40101   10101   20101   30101   50101
 
      189     169     188     190     209     609
        0   40101   10101   20101   30101   50101
 
      190     170     189     191     210     610
        0   40101   10101   20101   30101   50101
 
      191     171     190     192     211     611
        0   40101   10101   20101   30101   50101
 
      192     172     191     193     212     612
        0   40101   10101   20101   30101   50101
 
      193     173     192     194     213     613
        0   40101   10101   20101   30101   50101
 
      194     174     193     195     214     614
        0   40101   10101   20101   30101   50101
 
      195     175     194     196     215     615
        0   40101   10101   20101   30101   50101
 
      196     176     195     197     216     616
        0   40101   10101   20101   30101   50101
 
      197     177     196     198     217     617
        0   40101   10101   20101   30101   50101
 
      198     178     197     199     218     618
        0   40101   10101   20101   30101   50101
 
      199     179     198     200     219     619
        0   40101   10101   20101   30101   50101
 
      200     180     199     220     620
        0   40101   10101   30101   50101
 
      201     181     202     221     621
        0   40101   20101   30101   50101
 
      202     182     201     203     222     622
        0   40101   10101   20101   30101   50101
 
      203     183     202     204     223     623
        0   40101   10101   20101   30101   50101
 
      204     184     203     205     224     624
        0   40101   10101   20101   30101   50101
 
      205     185     204     206     225     625
        0   40101   10101   20101   30101   50101
 
      206     186     205     207     226     626
        0   40101   10101   20101   30101   50101
 
      207     187     206     208     227     627
        0   40101   10101   20101   30101   50101
 
      208     188     207     209     228     628
        0   40101   10101   20101   30101   50101
 
      209     189     208     210     229     629
        0   40101   10101   20101   30101   50101
 
      210     190     209     211     230     630
        0   40101   10101   20101   30101   50101
 
      211     191     210     212     231     631
        0   40101   10101   20101   30101   50101
 
      212     192     211     213     232     632
        0   40101   10101   20101   30101   50101
 
      213     193     212     214     233     633
        0   40101   10101   20101   30101   50101
 
      214     194     213     215     234     634
        0   40101   10101   20101   30101   50101
 
      215     195     214     216     235     635
        0   40101   10101   20101   30101   50101
 
      216     196     215     217     236     636
        0   40101   10101   20101   30101   50101
 
      217     197     216     218     237     637
        0   40101   10101   20101   30101   50101
 
      218     198     217     219     238     638
        0   40101   10101   20101   30101   50101
 
      219     199     218     220     239     639
        0   40101   10101   20101   30101   50101
 
      220     200     219     240     640
        0   40101   10101   30101   50101
 
      221     201     222     241     641
        0   40101   20101   30101   50101
 
      222     202     221     223     242     642
        0   40101   10101   20101   30101   50101
 
      223     203     222     224     243     643
        0   40101   10101   20101   30101   50101
 
      224     204     223     225     244     644
        0   40101   10101   20101   30101   50101
 
      225     205     224     226     245     645
        0   40101   10101   20101   30101   50101
 
      226     206     225     227     246     646
        0   40101   10101   20101   30101   50101
 
      227     207     226     228     247     647
        0   40101   10101   20101   30101   50101
 
      228     208     227     229     248     648
        0   40101   10101   20101   30101   50101
 
      229     209     228     230     249     649
        0   40101   10101   20101   30101   50101
 
      230     210     229     231     250     650
        0   40101   10101   20101   30101   50101
 
      231     211     230     232     251     651
        0   40101   10101   20101   30101   50101
 
      232     212     231     233     252     652
        0   40101   10101   20101   30101   50101
 
      233     213     232     234     253     653
        0   40101   10101   20101   30101   50101
 
      234     214     233     235     254     654
        0   40101   10101   20101   30101   50101
 
      235     215     234     236     255     655
        0   40101   10101   20101   30101   50101
 
      236     216     235     237     256     656
        0   40101   10101   20101   30101   50101
 
      237     217     236     238     257     657
        0   40101   10101   20101   30101   50101
 
      238     218     237     239     258     658
        0   40101   10101   20101   30101   50101
 
      239     219     238     240     259     659
        0   40101   10101   20101   30101   50101
 
      240     220     239     260     660
        0   40101   10101   30101   50101
 
      241     221     242     261     661
        0   40101   20101   30101   50101
 
      242     222     241     243     262     662
        0   40101   10101   20101   30101   50101
 
      243     223     242     244     263     663
        0   40101   10101   20101   30101   50101
 
      244     224     243     245     264     664
        0   40101   10101   20101   30101   50101
 
      245     225     244     246     265     665
        0   40101   10101   20101   30101   50101
 
      246     226     245     247     266     666
        0   40101   10101   20101   30101   50101
 
      247     227     246     248     267     667
        0   40101   10101   20101   30101   50101
 
      248     228     247     249     268     668
        0   40101   10101   20101   30101   50101
 
      249     229     248     250     269     669
        0   40101   10101   20101   30101   50101
 
      250     230     249     251     270     670
        0   40101   10101   20101   30101   50101
 
      251     231     250     252     271     671
        0   40101   10101   20101   30101   50101
 
      252     232     251     253     272     672
        0   40101   10101   20101   30101   50101
 
      253     233     252     254     273     673
        0   40101   10101   20101   30101   50101
 
      254     234     253     255     274     674
        0   40101   10101   20101   30101   50101
 
      255     235     254     256     275     675
        0   40101   10101   20101   30101   50101
 
      256     236     255     257     276     676
        0   40101   10101   20101   30101   50101
 
      257     237     256     258     277     677
        0   40101   10101   20101   30101   50101
 
      258     238     257     259     278     678
        0   40101   10101   20101   30101   50101
 
      259     239     258     260     279     679
        0   40101   10101   20101   30101   50101
 
      260     240     259     280     680
        0   40101   10101   30101   50101
 
      261     241     262     281     681
        0   40101   20101   30101   50101
 
      262     242     261     263     282     682
        0   40101   10101   20101   30101   50101
 
      263     243     262     264     283     683
        0   40101   10101   20101   30101   50101
 
      264     244     263     265     284     684
        0   40101   10101   20101   30101   50101
 
      265     245     264     266     285     685
        0   40101   10101   20101   30101   50101
 
      266     246     265     267     286     686
        0   40101   10101   20101   30101   50101
 
      267     247     266     268     287     687
        0   40101   10101   20101   30101   50101
 
      268     248     267     269     288     688
        0   40101   10101   20101   30101   50101
 
      269     249     268     270     289     689
        0   40101   10101   20101   30101   50101
 
      270     250     269     271     290     690
        0   40101   10101   20101   30101   50101
 
      271     251     270     272     291     691
        0   40101   10101   20101   30101   50101
 
      272     252     271     273     292     692
        0   40101   10101   20101   30101   50101
 
      273     253     272     274     293     693
        0   40101   10101   20101   30101   50101
 
      274     254     273     275     294     694
        0   40101   10101   20101   30101   50101
 
      275     255     274     276     295     695
        0   40101   10101   20101   30101   50101
 
      276     256     275     277     296     696
        0   40101   10101   20101   30101   50101
 
      277     257     276     278     297     697
        0   40101   10101   20101   30101   50101
 
      278     258     277     279     298     698
        0   40101   10101   20101   30101   50101
 
      279     259     278     280     299     699
        0   40101   10101   20101   30101   50101
 
      280     260     279     300     700
        0   40101   10101   30101   50101
 
      281     261     282     301     701
        0   40101   20101   30101   50101
 
      282     262     281     283     302     702
        0   40101   10101   20101   30101   50101
 
      283     263     282     284     303     703
        0   40101   10101   20101   30101   50101
 
      284     264     283     285     304     704
        0   40101   10101   20101   30101   50101
 
      285     265     284     286     305     705
        0   40101   10101   20101   30101   50101
 
      286     266     285     287     306     706
        0   40101   10101   20101   30101   50101
 
      287     267     286     288     307     707
        0   40101   10101   20101   30101   50101
 
      288     268     287     289     308     708
        0   40101   10101   20101   30101   50101
 
      289     269     288     290     309     709
        0   40101   10101   20101   30101   50101
 
      290     270     289     291     310     710
        0   40101   10101   20101   30101   50101
 
      291     271     290     292     311     711
        0   40101   10101   20101   30101   50101
 
      292     272     291     293     312     712
        0   40101   10101   20101   30101   50101
 
      293     273     292     294     313     713
        0   40101   10101   20101   30101   50101
 
      294     274     293     295     314     714
        0   40101   10101   20101   30101   50101
 
      295     275     294     296     315     715
        0   40101   10101   20101   30101   50101
 
      296     276     295     297     316     716
        0   40101   10101   20101   30101   50101
 
      297     277     296     298     317     717
        0   40101   10101   20101   30101   50101
 
      298     278     297     299     318     718
        0   40101   10101   20101   30101   50101
 
      299     279     298     300     319     719
        0   40101   10101   20101   30101   50101
 
      300     280     299     320     720
        0   40101   10101   30101   50101
 
      301     281     302     321     721
        0   40101   20101   30101   50101
 
      302     282     301     303     322     722
        0   40101   10101   20101   30101   50101
 
      303     283     302     304     323     723
        0   40101   10101   20101   30101   50101
 
      304     284     303     305     324     724
        0   40101   10101   20101   30101   50101
 
      305     285     304     306     325     725
        0   40101   10101   20101   30101   50101
 
      306     286     305     307     326     726
        0   40101   10101   20101   30101   50101
 
      307     287     306     308     327     727
        0   40101   10101   20101   30101   50101
 
      308     288     307     309     328     728
        0   40101   10101   20101   30101   50101
 
      309     289     308     310     329     729
        0   40101   10101   20101   30101   50101
 
      310     290     309     311     330     730
        0   40101   10101   20101   30101   50101
 
      311     291     310     312     331     731
        0   40101   10101   20101   30101   50101
 
      312     292     311     313     332     732
        0   40101   10101   20101   30101   50101
 
      313     293     312     314     333     733
        0   40101   10101   20101   30101   50101
 
      314     294     313     315     334     734
        0   40101   10101   20101   30101   50101
 
      315     295     314     316     335     735
        0   40101   10101   20101   30101   50101
 
      316     296     315     317     336     736
        0   40101   10101   20101   30101   50101
 
      317     297     316     318     337     737
        0   40101   10101   20101   30101   50101
 
      318     298     317     319     338     738
        0   40101   10101   20101   30101   50101
 
      319     299     318     320     339     739
        0   40101   10101   20101   30101   50101
 
      320     300     319     340     740
        0   40101   10101   30101   50101
 
      321     301     322     341     741
        0   40101   20101   30101   50101
 
      322     302     321     323     342     742
        0   40101   10101   20101   30101   50101
 
      323     303     322     324     343     743
        0   40101   10101   20101   30101   50101
 
      324     304     323     325     344     744
        0   40101   10101   20101   30101   50101
 
      325     305     324     326     345     745
        0   40101   10101   20101   30101   50101
 
      326     306     325     327     346     746
        0   40101   10101   20101   30101   50101
 
      327     307     326     328     347     747
        0   40101   10101   20101   30101   50101
 
      328     308     327     329     348     748
        0   40101   10101   20101   30101   50101
 
      329     309     328     330     349     749
        0   40101   10101   20101   30101   50101
 
      330     310     329     331     350     750
        0   40101   10101   20101   30101   50101
 
      331     311     330     332     351     751
        0   40101   10101   20101   30101   50101
 
      332     312     331     333     352     752
        0   40101   10101   20101   30101   50101
 
      333     313     332     334     353     753
        0   40101   10101   20101   30101   50101
 
      334     314     333     335     354     754
        0   40101   10101   20101   30101   50101
 
      335     315     334     336     355     755
        0   40101   10101   20101   30101   50101
 
      336     316     335     337     356     756
        0   40101   10101   20101   30101   50101
 
      337     317     336     338     357     757
        0   40101   10101   20101   30101   50101
 
      338     318     337     339     358     758
        0   40101   10101   20101   30101   50101
 
      339     319     338     340     359     759
        0   40101   10101   20101   30101   50101
 
      340     320     339     360     760
        0   40101   10101   30101   50101
 
      341     321     342     361     761
        0   40101   20101   30101   50101
 
      342     322     341     343     362     762
        0   40101   10101   20101   30101   50101
 
      343     323     342     344     363     763
        0   40101   10101   20101   30101   50101
 
      344     324     343     345     364     764
        0   40101   10101   20101   30101   50101
 
      345     325     344     346     365     765
        0   40101   10101   20101   30101   50101
 
      346     326     345     347     366     766
        0   40101   10101   20101   30101   50101
 
      347     327     346     348     367     767
        0   40101   10101   20101   30101   50101
 
      348     328     347     349     368     768
        0   40101   10101   20101   30101   50101
 
      349     329     348     350     369     769
        0   40101   10101   20101   30101   50101
 
      350     330     349     351     370     770
        0   40101   10101   20101   30101   50101
 
      351     331     350     352     371     771
        0   40101   10101   20101   30101   50101
 
      352     332     351     353     372     772
        0   40101   10101   20101   30101   50101
 
      353     333     352     354     373     773
        0   40101   10101   20101   30101   50101
 
      354     334     353     355     374     774
        0   40101   10101   20101   30101   50101
 
      355     335     354     356     375     775
        0   40101   10101   20101   30101   50101
 
      356     336     355     357     376     776
        0   40101   10101   20101   30101   50101
 
      357     337     356     358     377     777
        0   40101   10101   20101   30101   50101
 
      358     338     357     359     378     778
        0   40101   10101   20101   30101   50101
 
      359     339     358     360     379     779
        0   40101   10101   20101   30101   50101
 
      360     340     359     380     780
        0   40101   10101   30101   50101
 
      361     341     362     381     781
        0   40101   20101   30101   50101
 
      362     342     361     363     382     782
        0   40101   10101   20101   30101   50101
 
      363     343     362     364     383     783
        0   40101   10101   20101   30101   50101
 
      364     344     363     365     384     784
        0   40101   10101   20101   30101   50101
 
      365     345     364     366     385     785
        0   40101   10101   20101   30101   50101
 
      366     346     365     367     386     786
        0   40101   10101   20101   30101   50101
 
      367     347     366     368     387     787
        0   40101   10101   20101   30101   50101
 
      368     348     367     369     388     788
        0   40101   10101   20101   30101   50101
 
      369     349     368     370     389     789
        0   40101   10101   20101   30101   50101
 
      370     350     369     371     390     790
        0   40101   10101   20101   30101   50101
 
      371     351     370     372     391     791
        0   40101   10101   20101   30101   50101
 
      372     352     371     373     392     792
        0   40101   10101   20101   30101   50101
 
      373     353     372     374     393     793
        0   40101   10101   20101   30101   50101
 
      374     354     373     375     394     794
        0   40101   10101   20101   30101   50101
 
      375     355     374     376     395     795
        0   40101   10101   20101   30101   50101
 
      376     356     375     377     396     796
        0   40101   10101   20101   30101   50101
 
      377     357     376     378     397     797
        0   40101   10101   20101   30101   50101
 
      378     358     377     379     398     798
        0   40101   10101   20101   30101   50101
 
      379     359     378     380     399     799
        0   40101   10101   20101   30101   50101
 
      380     360     379     400     800
        0   40101   10101   30101   50101
 
      381     361     382     401     801
        0   40101   20101   30101   50101
 
      382     362     381     383     402     802
        0   40101   10101   20101   30101   50101
 
      383     363     382     384     403     803
        0   40101   10101   20101   30101   50101
 
      384     364     383     385     404     804
        0   40101   10101   20101   30101   50101
 
      385     365     384     386     405     805
        0   40101   10101   20101   30101   50101
 
      386     366     385     387     406     806
        0   40101   10101   20101   30101   50101
 
      387     367     386     388     407     807
        0   40101   10101   20101   30101   50101
 
      388     368     387     389     408     808
        0   40101   10101   20101   30101   50101
 
      389     369     388     390     409     809
        0   40101   10101   20101   30101   50101
 
      390     370     389     391     410     810
        0   40101   10101   20101   30101   50101
 
      391     371     390     392     411     811
        0   40101   10101   20101   30101   50101
 
      392     372     391     393     412     812
        0   40101   10101   20101   30101   50101
 
      393     373     392     394     413     813
        0   40101   10101   20101   30101   50101
 
      394     374     393     395     414     814
        0   40101   10101   20101   30101   50101
 
      395     375     394     396     415     815
        0   40101   10101   20101   30101   50101
 
      396     376     395     397     416     816
        0   40101   10101   20101   30101   50101
 
      397     377     396     398     417     817
        0   40101   10101   20101   30101   50101
 
      398     378     397     399     418     818
        0   40101   10101   20101   30101   50101
 
      399     379     398     400     419     819
        0   40101   10101   20101   30101   50101
 
      400     380     399     420     820
        0   40101   10101   30101   50101
 
      401     381     402     821
        0   40101   20101   50101
 
      402     382     401     403     822
        0   40101   10101   20101   50101
 
      403     383     402     404     823
        0   40101   10101   20101   50101
 
      404     384     403     405     824
        0   40101   10101   20101   50101
 
      405     385     404     406     825
        0   40101   10101   20101   50101
 
      406     386     405     407     826
        0   40101   10101   20101   50101
 
      407     387     406     408     827
        0   40101   10101   20101   50101
 
      408     388     407     409     828
        0   40101   10101   20101   50101
 
      409     389     408     410     829
        0   40101   10101   20101   50101
 
      410     390     409     411     830
        0   40101   10101   20101   50101
 
      411     391     410     412     831
        0   40101   10101   20101   50101
 
      412     392     411     413     832
        0   40101   10101   20101   50101
 
      413     393     412     414     833
        0   40101   10101   20101   50101
 
      414     394     413     415     834
        0   40101   10101   20101   50101
 
      415     395     414     416     835
        0   40101   10101   20101   50101
 
      416     396     415     417     836
        0   40101   10101   20101   50101
 
      417     397     416     418     837
        0   40101   10101   20101   50101
 
      418     398     417     419     838
        0   40101   10101   20101   50101
 
      419     399     418     420     839
        0   40101   10101   20101   50101
 
      420     400     419     840
        0   40101   10101   50101
 
      421       1     422     441     841
        0   60101   20101   30101   50101
 
      422       2     421     423     442     842
        0   60101   10101   20101   30101   50101
 
      423       3     422     424     443     843
        0   60101   10101   20101   30101   50101
 
      424       4     423     425     444     844
        0   60101   10101   20101   30101   50101
 
      425       5     424     426     445     845
        0   60101   10101   20101   30101   50101
 
      426       6     425     427     446     846
        0   60101   10101   20101   30101   50101
 
      427       7     426     428     447     847
        0   60101   10101   20101   30101   50101
 
      428       8     427     429     448     848
        0   60101   10101   20101   30101   50101
 
      429       9     428     430     449     849
        0   60101   10101   20101   30101   50101
 
      430      10     429     431     450     850
        0   60101   10101   20101   30101   50101
 
      431      11     430     432     451     851
        0   60101   10101   20101   30101   50101
 
      432      12     431     433     452     852
        0   60101   10101   20101   30101   50101
 
      433      13     432     434     453     853
        0   60101   10101   20101   30101   50101
 
      434      14     433     435     454     854
        0   60101   10101   20101   30101   50101
 
      435      15     434     436     455     855
        0   60101   10101   20101   30101   50101
 
      436      16     435     437     456     856
        0   60101   10101   20101   30101   50101
 
      437      17     436     438     457     857
        0   60101   10101   20101   30101   50101
 
      438      18     437     439     458     858
        0   60101   10101   20101   30101   50101
 
      439      19     438     440     459     859
        0   60101   10101   20101   30101   50101
 
      440      20     439     460     860
        0   60101   10101   30101   50101
 
      441      21     421     442     461     861
        0   60101   40101   20101   30101   50101
 
      442      22     422     441     443     462     862
        0   60101   40101   10101   20101   30101   50101
 
      443      23     423     442     444     463     863
        0   60101   40101   10101   20101   30101   50101
 
      444      24     424     443     445     464     864
        0   60101   40101   10101   20101   30101   50101
 
      445      25     425     444     446     465     865
        0   60101   40101   10101   20101   30101   50101
 
      446      26     426     445     447     466     866
        0   60101   40101   10101   20101   30101   50101
 
      447      27     427     446     448     467     867
        0   60101   40101   10101   20101   30101   50101
 
      448      28     428     447     449     468     868
        0   60101   40101   10101   20101   30101   50101
 
      449      29     429     448     450     469     869
        0   60101   40101   10101   20101   30101   50101
 
      450      30     430     449     451     470     870
        0   60101   40101   10101   20101   30101   50101
 
      451      31     431     450     452     471     871
        0   60101   40101   10101   20101   30101   50101
 
      452      32     432     451     453     472     872
        0   60101   40101   10101   20101   30101   50101
 
      453      33     433     452     454     473     873
        0   60101   40101   10101   20101   30101   50101
 
      454      34     434     453     455     474     874
        0   60101   40101   10101   20101   30101   50101
 
      455      35     435     454     456     475     875
        0   60101   40101   10101   20101   30101   50101
 
      456      36     436     455     457     476     876
        0   60101   40101   10101   20101   30101   50101
 
      457      37     437     456     458     477     877
        0   60101   40101   10101   20101   30101   50101
 
      458      38     438     457     459     478     878
        0   60101   40101   10101   20101   30101   50101
 
      459      39     439     458     460     479     879
        0   60101   40101   10101   20101   30101   50101
 
      460      40     440     459     480     880
        0   60101   40101   10101   30101   50101
 
      461      41     441     462     481     881
        0   60101   40101   20101   30101   50101
 
      462      42     442     461     463     482     882
        0   60101   40101   10101   20101   30101   50101
 
      463      43     443     462     464     483     883
        0   60101   40101   10101   20101   30101   50101
 
      464      44     444     463     465     484     884
        0   60101   40101   10101   20101   30101   50101
 
      465      45     445     464     466     485     885
        0   60101   40101   10101   20101   30101   50101
 
      466      46     446     465     467     486     886
        0   60101   40101   10101   20101   30101   50101
 
      467      47     447     466     468     487     887
        0   60101   40101   10101   20101   30101   50101
 
      468      48     448     467     469     488     888
        0   60101   40101   10101   20101   30101   50101
 
      469      49     449     468     470     489     889
        0   60101   40101   10101   20101   30101   50101
 
      470      50     450     469     471     490     890
        0   60101   40101   10101   20101   30101   50101
 
      471      51     451     470     472     491     891
        0   60101   40101   10101   20101   30101   50101
 
      472      52     452     471     473     492     892
        0   60101   40101   10101   20101   30101   50101
 
      473      53     453     472     474     493     893
        0   60101   40101   10101   20101   30101   50101
 
      474      54     454     473     475     494     894
        0   60101   40101   10101   20101   30101   50101
 
      475      55     455     474     476     495     895
        0   60101   40101   10101   20101   30101   50101
 
      476      56     456     475     477     496     896
        0   60101   40101   10101   20101   30101   50101
 
      477      57     457     476     478     497     897
        0   60101   40101   10101   20101   30101   50101
 
      478      58     458     477     479     498     898
        0   60101   40101   10101   20101   30101   50101
 
      479      59     459     478     480     499     899
        0   60101   40101   10101   20101   30101   50101
 
      480      60     460     479     500     900
        0   60101   40101   10101   30101   50101
 
      481      61     461     482     501     901
        0   60101   40101   20101   30101   50101
 
      482      62     462     481     483     502     902
        0   60101   40101   10101   20101   30101   50101
 
      483      63     463     482     484     503     903
        0   60101   40101   10101   20101   30101   50101
 
      484      64     464     483     485     504     904
        0   60101   40101   10101   20101   30101   50101
 
      485      65     465     484     486     505     905
        0   60101   40101   10101   20101   30101   50101
 
      486      66     466     485     487     506     906
        0   60101   40101   10101   20101   30101   50101
 
      487      67     467     486     488     507     907
        0   60101   40101   10101   20101   30101   50101
 
      488      68     468     487     489     508     908
        0   60101   40101   10101   20101   30101   50101
 
      489      69     469     488     490     509     909
        0   60101   40101   10101   20101   30101   50101
 
      490      70     470     489     491     510     910
        0   60101   40101   10101   20101   30101   50101
 
      491      71     471     490     492     511     911
        0   60101   40101   10101   20101   30101   50101
 
      492      72     472     491     493     512     912
        0   60101   40101   10101   20101   30101   50101
 
      493      73     473     492     494     513     913
        0   60101   40101   10101   20101   30101   50101
 
      494      74     474     493     495     514     914
        0   60101   40101   10101   20101   30101   50101
 
      495      75     475     494     496     515     915
        0   60101   40101   10101   20101   30101   50101
 
      496      76     476     495     497     516     916
        0   60101   40101   10101   20101   30101   50101
 
      497      77     477     496     498     517     917
        0   60101   40101   10101   20101   30101   50101
 
      498      78     478     497     499     518     918
        0   60101   40101   10101   20101   30101   50101
 
      499      79     479     498     500     519     919
        0   60101   40101   10101   20101   30101   50101
 
      500      80     480     499     520     920
        0   60101   40101   10101   30101   50101
 
      501      81     481     502     521     921
        0   60101   40101   20101   30101   50101
 
      502      82     482     501     503     522     922
        0   60101   40101   10101   20101   30101   50101
 
      503      83     483     502     504     523     923
        0   60101   40101   10101   20101   30101   50101
 
      504      84     484     503     505     524     924
        0   60101   40101   10101   20101   30101   50101
 
      505      85     485     504     506     525     925
        0   60101   40101   10101   20101   30101   50101
 
      506      86     486     505     507     526     926
        0   60101   40101   10101   20101   30101   50101
 
      507      87     487     506     508     527     927
        0   60101   40101   10101   20101   30101   50101
 
      508      88     488     507     509     528     928
        0   60101   40101   10101   20101   30101   50101
 
      509      89     489     508     510     529     929
        0   60101   40101   10101   20101   30101   50101
 
      510      90     490     509     511     530     930
        0   60101   40101   10101   20101   30101   50101
 
      511      91     491     510     512     531     931
        0   60101   40101   10101   20101   30101   50101
 
      512      92     492     511     513     532     932
        0   60101   40101   10101   20101   30101   50101
 
      513      93     493     512     514     533     933
        0   60101   40101   10101   20101   30101   50101
 
      514      94     494     513     515     534     934
        0   60101   40101   10101   20101   30101   50101
 
      515      95     495     514     516     535     935
        0   60101   40101   10101   20101   30101   50101
 
      516      96     496     515     517     536     936
        0   60101   40101   10101   20101   30101   50101
 
      517      97     497     516     518     537     937
        0   60101   40101   10101   20101   30101   50101
 
      518      98     498     517     519     538     938
        0   60101   40101   10101   20101   30101   50101
 
      519      99     499     518     520     539     939
        0   60101   40101   10101   20101   30101   50101
 
      520     100     500     519     540     940
        0   60101   40101   10101   30101   50101
 
      521     101     501     522     541     941
        0   60101   40101   20101   30101   50101
 
      522     102     502     521     523     542     942
        0   60101   40101   10101   20101   30101   50101
 
      523     103     503     522     524     543     943
        0   60101   40101   10101   20101   30101   50101
 
      524     104     504     523     525     544     944
        0   60101   40101   10101   20101   30101   50101
 
      525     105     505     524     526     545     945
        0   60101   40101   10101   20101   30101   50101
 
      526     106     506     525     527     546     946
        0   60101   40101   10101   20101   30101   50101
 
      527     107     507     526     528     547     947
        0   60101   40101   10101   20101   30101   50101
 
      528     108     508     527     529     548     948
        0   60101   40101   10101   20101   30101   50101
 
      529     109     509     528     530     549     949
        0   60101   40101   10101   20101   30101   50101
 
      530     110     510     529     531     550     950
        0   60101   40101   10101   20101   30101   50101
 
      531     111     511     530     532     551     951
        0   60101   40101   10101   20101   30101   50101
 
      532     112     512     531     533     552     952
        0   60101   40101   10101   20101   30101   50101
 
      533     113     513     532     534     553     953
        0   60101   40101   10101   20101   30101   50101
 
      534     114     514     533     535     554     954
        0   60101   40101   10101   20101   30101   50101
 
      535     115     515     534     536     555     955
        0   60101   40101   10101   20101   30101   50101
 
      536     116     516     535     537     556     956
        0   60101   40101   10101   20101   30101   50101
 
      537     117     517     536     538     557     957
        0   60101   40101   10101   20101   30101   50101
 
      538     118     518     537     539     558     958
        0   60101   40101   10101   20101   30101   50101
 
      539     119     519     538     540     559     959
        0   60101   40101   10101   20101   30101   50101
 
      540     120     520     539     560     960
        0   60101   40101   10101   30101   50101
 
      541     121     521     542     561     961
        0   60101   40101   20101   30101   50101
 
      542     122     522     541     543     562     962
        0   60101   40101   10101   20101   30101   50101
 
      543     123     523     542     544     563     963
        0   60101   40101   10101   20101   30101   50101
 
      544     124     524     543     545     564     964
        0   60101   40101   10101   20101   30101   50101
 
      545     125     525     544     546     565     965
        0   60101   40101   10101   20101   30101   50101
 
      546     126     526     545     547     566     966
        0   60101   40101   10101   20101   30101   50101
 
      547     127     527     546     548     567     967
        0   60101   40101   10101   20101   30101   50101
 
      548     128     528     547     549     568     968
        0   60101   40101   10101   20101   30101   50101
 
      549     129     529     548     550     569     969
        0   60101   40101   10101   20101   30101   50101
 
      550     130     530     549     551     570     970
        0   60101   40101   10101   20101   30101   50101
 
      551     131     531     550     552     571     971
        0   60101   40101   10101   20101   30101   50101
 
      552     132     532     551     553     572     972
        0   60101   40101   10101   20101   30101   50101
 
      553     133     533     552     554     573     973
        0   60101   40101   10101   20101   30101   50101
 
      554     134     534     553     555     574     974
        0   60101   40101   10101   20101   30101   50101
 
      555     135     535     554     556     575     975
        0   60101   40101   10101   20101   30101   50101
 
      556     136     536     555     557     576     976
        0   60101   40101   10101   20101   30101   50101
 
      557     137     537     556     558     577     977
        0   60101   40101   10101   20101   30101   50101
 
      558     138     538     557     559     578     978
        0   60101   40101   10101   20101   30101   50101
 
      559     139     539     558     560     579     979
        0   60101   40101   10101   20101   30101   50101
 
      560     140     540     559     580     980
        0   60101   40101   10101   30101   50101
 
      561     141     541     562     581     981
        0   60101   40101   20101   30101   50101
 
      562     142     542     561     563     582     982
        0   60101   40101   10101   20101   30101   50101
 
      563     143     543     562     564     583     983
        0   60101   40101   10101   20101   30101   50101
 
      564     144     544     563     565     584     984
        0   60101   40101   10101   20101   30101   50101
 
      565     145     545     564     566     585     985
        0   60101   40101   10101   20101   30101   50101
 
      566     146     546     565     567     586     986
        0   60101   40101   10101   20101   30101   50101
 
      567     147     547     566     568     587     987
        0   60101   40101   10101   20101   30101   50101
 
      568     148     548     567     569     588     988
        0   60101   40101   10101   20101   30101   50101
 
      569     149     549     568     570     589     989
        0   60101   40101   10101   20101   30101   50101
 
      570     150     550     569     571     590     990
        0   60101   40101   10101   20101   30101   50101
 
      571     151     551     570     572     591     991
        0   60101   40101   10101   20101   30101   50101
 
      572     152     552     571     573     592     992
        0   60101   40101   10101   20101   30101   50101
 
      573     153     553     572     574     593     993
        0   60101   40101   10101   20101   30101   50101
 
      574     154     554     573     575     594     994
        0   60101   40101   10101   20101   30101   50101
 
      575     155     555     574     576     595     995
        0   60101   40101   10101   20101   30101   50101
 
      576     156     556     575     577     596     996
        0   60101   40101   10101   20101   30101   50101
 
      577     157     557     576     578     597     997
        0   60101   40101   10101   20101   30101   50101
 
      578     158     558     577     579     598     998
        0   60101   40101   10101   20101   30101   50101
 
      579     159     559     578     580     599     999
        0   60101   40101   10101   20101   30101   50101
 
      580     160     560     579     600    1000
        0   60101   40101   10101   30101   50101
 
      581     161     561     582     601    1001
        0   60101   40101   20101   30101   50101
 
      582     162     562     581     583     602    1002
        0   60101   40101   10101   20101   30101   50101
 
      583     163     563     582     584     603    1003
        0   60101   40101   10101   20101   30101   50101
 
      584     164     564     583     585     604    1004
        0   60101   40101   10101   20101   30101   50101
 
      585     165     565     584     586     605    1005
        0   60101   40101   10101   20101   30101   50101
 
      586     166     566     585     587     606    1006
        0   60101   40101   10101   20101   30101   50101
 
      587     167     567     586     588     607    1007
        0   60101   40101   10101   20101   30101   50101
 
      588     168     568     587     589     608    1008
        0   60101   40101   10101   20101   30101   50101
 
      589     169     569     588     590     609    1009
        0   60101   40101   10101   20101   30101   50101
 
      590     170     570     589     591     610    1010
        0   60101   40101   10101   20101   30101   50101
 
      591     171     571     590     592     611    1011
        0   60101   40101   10101   20101   30101   50101
 
      592     172     572     591     593     612    1012
        0   60101   40101   10101   20101   30101   50101
 
      593     173     573     592     594     613    1013
        0   60101   40101   10101   20101   30101   50101
 
      594     174     574     593     595     614    1014
        0   60101   40101   10101   20101   30101   50101
 
      595     175     575     594     596     615    1015
        0   60101   40101   10101   20101   30101   50101
 
      596     176     576     595     597     616    1016
        0   60101   40101   10101   20101   30101   50101
 
      597     177     577     596     598     617    1017
        0   60101   40101   10101   20101   30101   50101
 
      598     178     578     597     599     618    1018
        0   60101   40101   10101   20101   30101   50101
 
      599     179     579     598     600     619    1019
        0   60101   40101   10101   20101   30101   50101
 
      600     180     580     599     620    1020
        0   60101   40101   10101   30101   50101
 
      601     181     581     602     621    1021
        0   60101   40101   20101   30101   50101
 
      602     182     582     601     603     622    1022
        0   60101   40101   10101   20101   30101   50101
 
      603     183     583     602     604     623    1023
        0   60101   40101   10101   20101   30101   50101
 
      604     184     584     603     605     624    1024
        0   60101   40101   10101   20101   30101   50101
 
      605     185     585     604     606     625    1025
        0   60101   40101   10101   20101   30101   50101
 
      606     186     586     605     607     626    1026
        0   60101   40101   10101   20101   30101   50101
 
      607     187     587     606     608     627    1027
        0   60101   40101   10101   20101   30101   50101
 
      608     188     588     607     609     628    1028
        0   60101   40101   10101   20101   30101   50101
 
      609     189     589     608     610     629    1029
        0   60101   40101   10101   20101   30101   50101
 
      610     190     590     609     611     630    1030
        0   60101   40101   10101   20101   30101   50101
 
      611     191     591     610     612     631    1031
        0   60101   40101   10101   20101   30101   50101
 
      612     192     592     611     613     632    1032
        0   60101   40101   10101   20101   30101   50101
 
      613     193     593     612     614     633    1033
        0   60101   40101   10101   20101   30101   50101
 
      614     194     594     613     615     634    1034
        0   60101   40101   10101   20101   30101   50101
 
      615     195     595     614     616     635    1035
        0   60101   40101   10101   20101   30101   50101
 
      616     196     596     615     617     636    1036
        0   60101   40101   10101   20101   30101   50101
 
      617     197     597     616     618     637    1037
        0   60101   40101   10101   20101   30101   50101
 
      618     198     598     617     619     638    1038
        0   60101   40101   10101   20101   30101   50101
 
      619     199     599     618     620     639    1039
        0   60101   40101   10101   20101   30101   50101
 
      620     200     600     619     640    1040
        0   60101   40101   10101   30101   50101
 
      621     201     601     622     641    1041
        0   60101   40101   20101   30101   50101
 
      622     202     602     621     623     642    1042
        0   60101   40101   10101   20101   30101   50101
 
      623     203     603     622     624     643    1043
        0   60101   40101   10101   20101   30101   50101
 
      624     204     604     623     625     644    1044
        0   60101   40101   10101   20101   30101   50101
 
      625     205     605     624     626     645    1045
        0   60101   40101   10101   20101   30101   50101
 
      626     206     606     625     627     646    1046
        0   60101   40101   10101   20101   30101   50101
 
      627     207     607     626     628     647    1047
        0   60101   40101   10101   20101   30101   50101
 
      628     208     608     627     629     648    1048
        0   60101   40101   10101   20101   30101   50101
 
      629     209     609     628     630     649    1049
        0   60101   40101   10101   20101   30101   50101
 
      630     210     610     629     631     650    1050
        0   60101   40101   10101   20101   30101   50101
 
      631     211     611     630     632     651    1051
        0   60101   40101   10101   20101   30101   50101
 
      632     212     612     631     633     652    1052
        0   60101   40101   10101   20101   30101   50101
 
      633     213     613     632     634     653    1053
        0   60101   40101   10101   20101   30101   50101
 
      634     214     614     633     635     654    1054
        0   60101   40101   10101   20101   30101   50101
 
      635     215     615     634     636     655    1055
        0   60101   40101   10101   20101   30101   50101
 
      636     216     616     635     637     656    1056
        0   60101   40101   10101   20101   30101   50101
 
      637     217     617     636     638     657    1057
        0   60101   40101   10101   20101   30101   50101
 
      638     218     618     637     639     658    1058
        0   60101   40101   10101   20101   30101   50101
 
      639     219     619     638     640     659    1059
        0   60101   40101   10101   20101   30101   50101
 
      640     220     620     639     660    1060
        0   60101   40101   10101   30101   50101
 
      641     221     621     642     661    1061
        0   60101   40101   20101   30101   50101
 
      642     222     622     641     643     662    1062
        0   60101   40101   10101   20101   30101   50101
 
      643     223     623     642     644     663    1063
        0   60101   40101   10101   20101   30101   50101
 
      644     224     624     643     645     664    1064
        0   60101   40101   10101   20101   30101   50101
 
      645     225     625     644     646     665    1065
        0   60101   40101   10101   20101   30101   50101
 
      646     226     626     645     647     666    1066
        0   60101   40101   10101   20101   30101   50101
 
      647     227     627     646     648     667    1067
        0   60101   40101   10101   20101   30101   50101
 
      648     228     628     647     649     668    1068
        0   60101   40101   10101   20101   30101   50101
 
      649     229     629     648     650     669    1069
        0   60101   40101   10101   20101   30101   50101
 
      650     230     630     649     651     670    1070
        0   60101   40101   10101   20101   30101   50101
 
      651     231     631     650     652     671    1071
        0   60101   40101   10101   20101   30101   50101
 
      652     232     632     651     653     672    1072
        0   60101   40101   10101   20101   30101   50101
 
      653     233     633     652     654     673    1073
        0   60101   40101   10101   20101   30101   50101
 
      654     234     634     653     655     674    1074
        0   60101   40101   10101   20101   30101   50101
 
      655     235     635     654     656     675    1075
        0   60101   40101   10101   20101   30101   50101
 
      656     236     636     655     657     676    1076
        0   60101   40101   10101   20101   30101   50101
 
      657     237     637     656     658     677    1077
        0   60101   40101   10101   20101   30101   50101
 
      658     238     638     657     659     678    1078
        0   60101   40101   10101   20101   30101   50101
 
      659     239     639     658     660     679    1079
        0   60101   40101   10101   20101   30101   50101
 
      660     240     640     659     680    1080
        0   60101   40101   10101   30101   50101
 
      661     241     641     662     681    1081
        0   60101   40101   20101   30101   50101
 
      662     242     642     661     663     682    1082
        0   60101   40101   10101   20101   30101   50101
 
      663     243     643     662     664     683    1083
        0   60101   40101   10101   20101   30101   50101
 
      664     244     644     663     665     684    1084
        0   60101   40101   10101   20101   30101   50101
 
      665     245     645     664     666     685    1085
        0   60101   40101   10101   20101   30101   50101
 
      666     246     646     665     667     686    1086
        0   60101   40101   10101   20101   30101   50101
 
      667     247     647     666     668     687    1087
        0   60101   40101   10101   20101   30101   50101
 
      668     248     648     667     669     688    1088
        0   60101   40101   10101   20101   30101   50101
 
      669     249     649     668     670     689    1089
        0   60101   40101   10101   20101   30101   50101
 
      670     250     650     669     671     690    1090
        0   60101   40101   10101   20101   30101   50101
 
      671     251     651     670     672     691    1091
        0   60101   40101   10101   20101   30101   50101
 
      672     252     652     671     673     692    1092
        0   60101   40101   10101   20101   30101   50101
 
      673     253     653     672     674     693    1093
        0   60101   40101   10101   20101   30101   50101
 
      674     254     654     673     675     694    1094
        0   60101   40101   10101   20101   30101   50101
 
      675     255     655     674     676     695    1095
        0   60101   40101   10101   20101   30101   50101
 
      676     256     656     675     677     696    1096
        0   60101   40101   10101   20101   30101   50101
 
      677     257     657     676     678     697    1097
        0   60101   40101   10101   20101   30101   50101
 
      678     258     658     677     679     698    1098
        0   60101   40101   10101   20101   30101   50101
 
      679     259     659     678     680     699    1099
        0   60101   40101   10101   20101   30101   50101
 
      680     260     660     679     700    1100
        0   60101   40101   10101   30101   50101
 
      681     261     661     682     701    1101
        0   60101   40101   20101   30101   50101
 
      682     262     662     681     683     702    1102
        0   60101   40101   10101   20101   30101   50101
 
      683     263     663     682     684     703    1103
        0   60101   40101   10101   20101   30101   50101
 
      684     264     664     683     685     704    1104
        0   60101   40101   10101   20101   30101   50101
 
      685     265     665     684     686     705    1105
        0   60101   40101   10101   20101   30101   50101
 
      686     266     666     685     687     706    1106
        0   60101   40101   10101   20101   30101   50101
 
      687     267     667     686     688     707    1107
        0   60101   40101   10101   20101   30101   50101
 
      688     268     668     687     689     708    1108
        0   60101   40101   10101   20101   30101   50101
 
      689     269     669     688     690     709    1109
        0   60101   40101   10101   20101   30101   50101
 
      690     270     670     689     691     710    1110
        0   60101   40101   10101   20101   30101   50101
 
      691     271     671     690     692     711    1111
        0   60101   40101   10101   20101   30101   50101
 
      692     272     672     691     693     712    1112
        0   60101   40101   10101   20101   30101   50101
 
      693     273     673     692     694     713    1113
        0   60101   40101   10101   20101   30101   50101
 
      694     274     674     693     695     714    1114
        0   60101   40101   10101   20101   30101   50101
 
      695     275     675     694     696     715    1115
        0   60101   40101   10101   20101   30101   50101
 
      696     276     676     695     697     716    1116
        0   60101   40101   10101   20101   30101   50101
 
      697     277     677     696     698     717    1117
        0   60101   40101   10101   20101   30101   50101
 
      698     278     678     697     699     718    1118
        0   60101   40101   10101   20101   30101   50101
 
      699     279     679     698     700     719    1119
        0   60101   40101   10101   20101   30101   50101
 
      700     280     680     699     720    1120
        0   60101   40101   10101   30101   50101
 
      701     281     681     702     721    1121
        0   60101   40101   20101   30101   50101
 
      702     282     682     701     703     722    1122
        0   60101   40101   10101   20101   30101   50101
 
      703     283     683     702     704     723    1123
        0   60101   40101   10101   20101   30101   50101
 
      704     284     684     703     705     724    1124
        0   60101   40101   10101   20101   30101   50101
 
      705     285     685     704     706     725    1125
        0   60101   40101   10101   20101   30101   50101
 
      706     286     686     705     707     726    1126
        0   60101   40101   10101   20101   30101   50101
 
      707     287     687     706     708     727    1127
        0   60101   40101   10101   20101   30101   50101
 
      708     288     688     707     709     728    1128
        0   60101   40101   10101   20101   30101   50101
 
      709     289     689     708     710     729    1129
        0   60101   40101   10101   20101   30101   50101
 
      710     290     690     709     711     730    1130
        0   60101   40101   10101   20101   30101   50101
 
      711     291     691     710     712     731    1131
        0   60101   40101   10101   20101   30101   50101
 
      712     292     692     711     713     732    1132
        0   60101   40101   10101   20101   30101   50101
 
      713     293     693     712     714     733    1133
        0   60101   40101   10101   20101   30101   50101
 
      714     294     694     713     715     734    1134
        0   60101   40101   10101   20101   30101   50101
 
      715     295     695     714     716     735    1135
        0   60101   40101   10101   20101   30101   50101
 
      716     296     696     715     717     736    1136
        0   60101   40101   10101   20101   30101   50101
 
      717     297     697     716     718     737    1137
        0   60101   40101   10101   20101   30101   50101
 
      718     298     698     717     719     738    1138
        0   60101   40101   10101   20101   30101   50101
 
      719     299     699     718     720     739    1139
        0   60101   40101   10101   20101   30101   50101
 
      720     300     700     719     740    1140
        0   60101   40101   10101   30101   50101
 
      721     301     701     722     741    1141
        0   60101   40101   20101   30101   50101
 
      722     302     702     721     723     742    1142
        0   60101   40101   10101   20101   30101   50101
 
      723     303     703     722     724     743    1143
        0   60101   40101   10101   20101   30101   50101
 
      724     304     704     723     725     744    1144
        0   60101   40101   10101   20101   30101   50101
 
      725     305     705     724     726     745    1145
        0   60101   40101   10101   20101   30101   50101
 
      726     306     706     725     727     746    1146
        0   60101   40101   10101   20101   30101   50101
 
      727     307     707     726     728     747    1147
        0   60101   40101   10101   20101   30101   50101
 
      728     308     708     727     729     748    1148
        0   60101   40101   10101   20101   30101   50101
 
      729     309     709     728     730     749    1149
        0   60101   40101   10101   20101   30101   50101
 
      730     310     710     729     731     750    1150
        0   60101   40101   10101   20101   30101   50101
 
      731     311     711     730     732     751    1151
        0   60101   40101   10101   20101   30101   50101
 
      732     312     712     731     733     752    1152
        0   60101   40101   10101   20101   30101   50101
 
      733     313     713     732     734     753    1153
        0   60101   40101   10101   20101   30101   50101
 
      734     314     714     733     735     754    1154
        0   60101   40101   10101   20101   30101   50101
 
      735     315     715     734     736     755    1155
        0   60101   40101   10101   20101   30101   50101
 
      736     316     716     735     737     756    1156
        0   60101   40101   10101   20101   30101   50101
 
      737     317     717     736     738     757    1157
        0   60101   40101   10101   20101   30101   50101
 
      738     318     718     737     739     758    1158
        0   60101   40101   10101   20101   30101   50101
 
      739     319     719     738     740     759    1159
        0   60101   40101   10101   20101   30101   50101
 
      740     320     720     739     760    1160
        0   60101   40101   10101   30101   50101
 
      741     321     721     742     761    1161
        0   60101   40101   20101   30101   50101
 
      742     322     722     741     743     762    1162
        0   60101   40101   10101   20101   30101   50101
 
      743     323     723     742     744     763    1163
        0   60101   40101   10101   20101   30101   50101
 
      744     324     724     743     745     764    1164
        0   60101   40101   10101   20101   30101   50101
 
      745     325     725     744     746     765    1165
        0   60101   40101   10101   20101   30101   50101
 
      746     326     726     745     747     766    1166
        0   60101   40101   10101   20101   30101   50101
 
      747     327     727     746     748     767    1167
        0   60101   40101   10101   20101   30101   50101
 
      748     328     728     747     749     768    1168
[...]
 
     1067     647    1047    1066    1068    1087
        0   60101   40101   10101   20101   30101
 
     1068     648    1048    1067    1069    1088
        0   60101   40101   10101   20101   30101
 
     1069     649    1049    1068    1070    1089
        0   60101   40101   10101   20101   30101
 
     1070     650    1050    1069    1071    1090
        0   60101   40101   10101   20101   30101
 
     1071     651    1051    1070    1072    1091
        0   60101   40101   10101   20101   30101
 
     1072     652    1052    1071    1073    1092
        0   60101   40101   10101   20101   30101
 
     1073     653    1053    1072    1074    1093
        0   60101   40101   10101   20101   30101
 
     1074     654    1054    1073    1075    1094
        0   60101   40101   10101   20101   30101
 
     1075     655    1055    1074    1076    1095
        0   60101   40101   10101   20101   30101
 
     1076     656    1056    1075    1077    1096
        0   60101   40101   10101   20101   30101
 
     1077     657    1057    1076    1078    1097
        0   60101   40101   10101   20101   30101
 
     1078     658    1058    1077    1079    1098
        0   60101   40101   10101   20101   30101
 
     1079     659    1059    1078    1080    1099
        0   60101   40101   10101   20101   30101
 
     1080     660    1060    1079    1100
        0   60101   40101   10101   30101
 
     1081     661    1061    1082    1101
        0   60101   40101   20101   30101
 
     1082     662    1062    1081    1083    1102
        0   60101   40101   10101   20101   30101
 
     1083     663    1063    1082    1084    1103
        0   60101   40101   10101   20101   30101
 
     1084     664    1064    1083    1085    1104
        0   60101   40101   10101   20101   30101
 
     1085     665    1065    1084    1086    1105
        0   60101   40101   10101   20101   30101
 
     1086     666    1066    1085    1087    1106
        0   60101   40101   10101   20101   30101
 
     1087     667    1067    1086    1088    1107
        0   60101   40101   10101   20101   30101
 
     1088     668    1068    1087    1089    1108
        0   60101   40101   10101   20101   30101
 
     1089     669    1069    1088    1090    1109
        0   60101   40101   10101   20101   30101
 
     1090     670    1070    1089    1091    1110
        0   60101   40101   10101   20101   30101
 
     1091     671    1071    1090    1092    1111
        0   60101   40101   10101   20101   30101
 
     1092     672    1072    1091    1093    1112
        0   60101   40101   10101   20101   30101
 
     1093     673    1073    1092    1094    1113
        0   60101   40101   10101   20101   30101
 
     1094     674    1074    1093    1095    1114
        0   60101   40101   10101   20101   30101
 
     1095     675    1075    1094    1096    1115
        0   60101   40101   10101   20101   30101
 
     1096     676    1076    1095    1097    1116
        0   60101   40101   10101   20101   30101
 
     1097     677    1077    1096    1098    1117
        0   60101   40101   10101   20101   30101
 
     1098     678    1078    1097    1099    1118
        0   60101   40101   10101   20101   30101
 
     1099     679    1079    1098    1100    1119
        0   60101   40101   10101   20101   30101
 
     1100     680    1080    1099    1120
        0   60101   40101   10101   30101
 
     1101     681    1081    1102    1121
        0   60101   40101   20101   30101
 
     1102     682    1082    1101    1103    1122
        0   60101   40101   10101   20101   30101
 
     1103     683    1083    1102    1104    1123
        0   60101   40101   10101   20101   30101
 
     1104     684    1084    1103    1105    1124
        0   60101   40101   10101   20101   30101
 
     1105     685    1085    1104    1106    1125
        0   60101   40101   10101   20101   30101
 
     1106     686    1086    1105    1107    1126
        0   60101   40101   10101   20101   30101
 
     1107     687    1087    1106    1108    1127
        0   60101   40101   10101   20101   30101
 
     1108     688    1088    1107    1109    1128
        0   60101   40101   10101   20101   30101
 
     1109     689    1089    1108    1110    1129
        0   60101   40101   10101   20101   30101
 
     1110     690    1090    1109    1111    1130
        0   60101   40101   10101   20101   30101
 
     1111     691    1091    1110    1112    1131
        0   60101   40101   10101   20101   30101
 
     1112     692    1092    1111    1113    1132
        0   60101   40101   10101   20101   30101
 
     1113     693    1093    1112    1114    1133
        0   60101   40101   10101   20101   30101
 
     1114     694    1094    1113    1115    1134
        0   60101   40101   10101   20101   30101
 
     1115     695    1095    1114    1116    1135
        0   60101   40101   10101   20101   30101
 
     1116     696    1096    1115    1117    1136
        0   60101   40101   10101   20101   30101
 
     1117     697    1097    1116    1118    1137
        0   60101   40101   10101   20101   30101
 
     1118     698    1098    1117    1119    1138
        0   60101   40101   10101   20101   30101
 
     1119     699    1099    1118    1120    1139
        0   60101   40101   10101   20101   30101
 
     1120     700    1100    1119    1140
        0   60101   40101   10101   30101
 
     1121     701    1101    1122    1141
        0   60101   40101   20101   30101
 
     1122     702    1102    1121    1123    1142
        0   60101   40101   10101   20101   30101
 
     1123     703    1103    1122    1124    1143
        0   60101   40101   10101   20101   30101
 
     1124     704    1104    1123    1125    1144
        0   60101   40101   10101   20101   30101
 
     1125     705    1105    1124    1126    1145
        0   60101   40101   10101   20101   30101
 
     1126     706    1106    1125    1127    1146
        0   60101   40101   10101   20101   30101
 
     1127     707    1107    1126    1128    1147
        0   60101   40101   10101   20101   30101
 
     1128     708    1108    1127    1129    1148
        0   60101   40101   10101   20101   30101
 
     1129     709    1109    1128    1130    1149
        0   60101   40101   10101   20101   30101
 
     1130     710    1110    1129    1131    1150
        0   60101   40101   10101   20101   30101
 
     1131     711    1111    1130    1132    1151
        0   60101   40101   10101   20101   30101
 
     1132     712    1112    1131    1133    1152
        0   60101   40101   10101   20101   30101
 
     1133     713    1113    1132    1134    1153
        0   60101   40101   10101   20101   30101
 
     1134     714    1114    1133    1135    1154
        0   60101   40101   10101   20101   30101
 
     1135     715    1115    1134    1136    1155
        0   60101   40101   10101   20101   30101
 
     1136     716    1116    1135    1137    1156
        0   60101   40101   10101   20101   30101
 
     1137     717    1117    1136    1138    1157
        0   60101   40101   10101   20101   30101
 
     1138     718    1118    1137    1139    1158
        0   60101   40101   10101   20101   30101
 
     1139     719    1119    1138    1140    1159
        0   60101   40101   10101   20101   30101
 
     1140     720    1120    1139    1160
        0   60101   40101   10101   30101
 
     1141     721    1121    1142    1161
        0   60101   40101   20101   30101
 
     1142     722    1122    1141    1143    1162
        0   60101   40101   10101   20101   30101
 
     1143     723    1123    1142    1144    1163
        0   60101   40101   10101   20101   30101
 
     1144     724    1124    1143    1145    1164
        0   60101   40101   10101   20101   30101
 
     1145     725    1125    1144    1146    1165
        0   60101   40101   10101   20101   30101
 
     1146     726    1126    1145    1147    1166
        0   60101   40101   10101   20101   30101
 
     1147     727    1127    1146    1148    1167
        0   60101   40101   10101   20101   30101
 
     1148     728    1128    1147    1149    1168
        0   60101   40101   10101   20101   30101
 
     1149     729    1129    1148    1150    1169
        0   60101   40101   10101   20101   30101
 
     1150     730    1130    1149    1151    1170
        0   60101   40101   10101   20101   30101
 
     1151     731    1131    1150    1152    1171
        0   60101   40101   10101   20101   30101
 
     1152     732    1132    1151    1153    1172
        0   60101   40101   10101   20101   30101
 
     1153     733    1133    1152    1154    1173
        0   60101   40101   10101   20101   30101
 
     1154     734    1134    1153    1155    1174
        0   60101   40101   10101   20101   30101
 
     1155     735    1135    1154    1156    1175
        0   60101   40101   10101   20101   30101
 
     1156     736    1136    1155    1157    1176
        0   60101   40101   10101   20101   30101
 
     1157     737    1137    1156    1158    1177
        0   60101   40101   10101   20101   30101
 
     1158     738    1138    1157    1159    1178
        0   60101   40101   10101   20101   30101
 
     1159     739    1139    1158    1160    1179
        0   60101   40101   10101   20101   30101
 
     1160     740    1140    1159    1180
        0   60101   40101   10101   30101
 
     1161     741    1141    1162    1181
        0   60101   40101   20101   30101
 
     1162     742    1142    1161    1163    1182
        0   60101   40101   10101   20101   30101
 
     1163     743    1143    1162    1164    1183
        0   60101   40101   10101   20101   30101
 
     1164     744    1144    1163    1165    1184
        0   60101   40101   10101   20101   30101
 
     1165     745    1145    1164    1166    1185
        0   60101   40101   10101   20101   30101
 
     1166     746    1146    1165    1167    1186
        0   60101   40101   10101   20101   30101
 
     1167     747    1147    1166    1168    1187
        0   60101   40101   10101   20101   30101
 
     1168     748    1148    1167    1169    1188
        0   60101   40101   10101   20101   30101
 
     1169     749    1149    1168    1170    1189
        0   60101   40101   10101   20101   30101
 
     1170     750    1150    1169    1171    1190
        0   60101   40101   10101   20101   30101
 
     1171     751    1151    1170    1172    1191
        0   60101   40101   10101   20101   30101
 
     1172     752    1152    1171    1173    1192
        0   60101   40101   10101   20101   30101
 
     1173     753    1153    1172    1174    1193
        0   60101   40101   10101   20101   30101
 
     1174     754    1154    1173    1175    1194
        0   60101   40101   10101   20101   30101
 
     1175     755    1155    1174    1176    1195
        0   60101   40101   10101   20101   30101
 
     1176     756    1156    1175    1177    1196
        0   60101   40101   10101   20101   30101
 
     1177     757    1157    1176    1178    1197
        0   60101   40101   10101   20101   30101
 
     1178     758    1158    1177    1179    1198
        0   60101   40101   10101   20101   30101
 
     1179     759    1159    1178    1180    1199
        0   60101   40101   10101   20101   30101
 
     1180     760    1160    1179    1200
        0   60101   40101   10101   30101
 
     1181     761    1161    1182    1201
        0   60101   40101   20101   30101
 
     1182     762    1162    1181    1183    1202
        0   60101   40101   10101   20101   30101
 
     1183     763    1163    1182    1184    1203
        0   60101   40101   10101   20101   30101
 
     1184     764    1164    1183    1185    1204
        0   60101   40101   10101   20101   30101
 
     1185     765    1165    1184    1186    1205
        0   60101   40101   10101   20101   30101
 
     1186     766    1166    1185    1187    1206
        0   60101   40101   10101   20101   30101
 
     1187     767    1167    1186    1188    1207
        0   60101   40101   10101   20101   30101
 
     1188     768    1168    1187    1189    1208
        0   60101   40101   10101   20101   30101
 
     1189     769    1169    1188    1190    1209
        0   60101   40101   10101   20101   30101
 
     1190     770    1170    1189    1191    1210
        0   60101   40101   10101   20101   30101
 
     1191     771    1171    1190    1192    1211
        0   60101   40101   10101   20101   30101
 
     1192     772    1172    1191    1193    1212
        0   60101   40101   10101   20101   30101
 
     1193     773    1173    1192    1194    1213
        0   60101   40101   10101   20101   30101
 
     1194     774    1174    1193    1195    1214
        0   60101   40101   10101   20101   30101
 
     1195     775    1175    1194    1196    1215
        0   60101   40101   10101   20101   30101
 
     1196     776    1176    1195    1197    1216
        0   60101   40101   10101   20101   30101
 
     1197     777    1177    1196    1198    1217
        0   60101   40101   10101   20101   30101
 
     1198     778    1178    1197    1199    1218
        0   60101   40101   10101   20101   30101
 
     1199     779    1179    1198    1200    1219
        0   60101   40101   10101   20101   30101
 
     1200     780    1180    1199    1220
        0   60101   40101   10101   30101
 
     1201     781    1181    1202    1221
        0   60101   40101   20101   30101
 
     1202     782    1182    1201    1203    1222
        0   60101   40101   10101   20101   30101
 
     1203     783    1183    1202    1204    1223
        0   60101   40101   10101   20101   30101
 
     1204     784    1184    1203    1205    1224
        0   60101   40101   10101   20101   30101
 
     1205     785    1185    1204    1206    1225
        0   60101   40101   10101   20101   30101
 
     1206     786    1186    1205    1207    1226
        0   60101   40101   10101   20101   30101
 
     1207     787    1187    1206    1208    1227
        0   60101   40101   10101   20101   30101
 
     1208     788    1188    1207    1209    1228
        0   60101   40101   10101   20101   30101
 
     1209     789    1189    1208    1210    1229
        0   60101   40101   10101   20101   30101
 
     1210     790    1190    1209    1211    1230
        0   60101   40101   10101   20101   30101
 
     1211     791    1191    1210    1212    1231
        0   60101   40101   10101   20101   30101
 
     1212     792    1192    1211    1213    1232
        0   60101   40101   10101   20101   30101
 
     1213     793    1193    1212    1214    1233
        0   60101   40101   10101   20101   30101
 
     1214     794    1194    1213    1215    1234
        0   60101   40101   10101   20101   30101
 
     1215     795    1195    1214    1216    1235
        0   60101   40101   10101   20101   30101
 
     1216     796    1196    1215    1217    1236
        0   60101   40101   10101   20101   30101
 
     1217     797    1197    1216    1218    1237
        0   60101   40101   10101   20101   30101
 
     1218     798    1198    1217    1219    1238
        0   60101   40101   10101   20101   30101
 
     1219     799    1199    1218    1220    1239
        0   60101   40101   10101   20101   30101
 
     1220     800    1200    1219    1240
        0   60101   40101   10101   30101
 
     1221     801    1201    1222    1241
        0   60101   40101   20101   30101
 
     1222     802    1202    1221    1223    1242
        0   60101   40101   10101   20101   30101
 
     1223     803    1203    1222    1224    1243
        0   60101   40101   10101   20101   30101
 
     1224     804    1204    1223    1225    1244
        0   60101   40101   10101   20101   30101
 
     1225     805    1205    1224    1226    1245
        0   60101   40101   10101   20101   30101
 
     1226     806    1206    1225    1227    1246
        0   60101   40101   10101   20101   30101
 
     1227     807    1207    1226    1228    1247
        0   60101   40101   10101   20101   30101
 
     1228     808    1208    1227    1229    1248
        0   60101   40101   10101   20101   30101
 
     1229     809    1209    1228    1230    1249
        0   60101   40101   10101   20101   30101
 
     1230     810    1210    1229    1231    1250
        0   60101   40101   10101   20101   30101
 
     1231     811    1211    1230    1232    1251
        0   60101   40101   10101   20101   30101
 
     1232     812    1212    1231    1233    1252
        0   60101   40101   10101   20101   30101
 
     1233     813    1213    1232    1234    1253
        0   60101   40101   10101   20101   30101
 
     1234     814    1214    1233    1235    1254
        0   60101   40101   10101   20101   30101
 
     1235     815    1215    1234    1236    1255
        0   60101   40101   10101   20101   30101
 
     1236     816    1216    1235    1237    1256
        0   60101   40101   10101   20101   30101
 
     1237     817    1217    1236    1238    1257
        0   60101   40101   10101   20101   30101
 
     1238     818    1218    1237    1239    1258
        0   60101   40101   10101   20101   30101
 
     1239     819    1219    1238    1240    1259
        0   60101   40101   10101   20101   30101
 
     1240     820    1220    1239    1260
        0   60101   40101   10101   30101
 
     1241     821    1221    1242
        0   60101   40101   20101
 
     1242     822    1222    1241    1243
        0   60101   40101   10101   20101
 
     1243     823    1223    1242    1244
        0   60101   40101   10101   20101
 
     1244     824    1224    1243    1245
        0   60101   40101   10101   20101
 
     1245     825    1225    1244    1246
        0   60101   40101   10101   20101
 
     1246     826    1226    1245    1247
        0   60101   40101   10101   20101
 
     1247     827    1227    1246    1248
        0   60101   40101   10101   20101
 
     1248     828    1228    1247    1249
        0   60101   40101   10101   20101
 
     1249     829    1229    1248    1250
        0   60101   40101   10101   20101
 
     1250     830    1230    1249    1251
        0   60101   40101   10101   20101
 
     1251     831    1231    1250    1252
        0   60101   40101   10101   20101
 
     1252     832    1232    1251    1253
        0   60101   40101   10101   20101
 
     1253     833    1233    1252    1254
        0   60101   40101   10101   20101
 
     1254     834    1234    1253    1255
        0   60101   40101   10101   20101
 
     1255     835    1235    1254    1256
        0   60101   40101   10101   20101
 
     1256     836    1236    1255    1257
        0   60101   40101   10101   20101
 
     1257     837    1237    1256    1258
        0   60101   40101   10101   20101
 
     1258     838    1238    1257    1259
        0   60101   40101   10101   20101
 
     1259     839    1239    1258    1260
        0   60101   40101   10101   20101
 
     1260     840    1240    1259
        0   60101   40101   10101
 
Allocate budget reader component.
Open budget file in budget reader.
Allocate head reader component.
Open head file in head reader component.
Allocate MODPATH basic data component.
Read MODPATH basic data component.
Read the remainder of the MODPATH simulation data component.
Allocate particle tracking engine component.
Compute range of time steps. Prepare for time step loop                                                                             
Begin TIME_STEP_LOOP
Compute TSMAX                                                                                                                       
Begin TRACKING_INTERVAL_LOOP
Exit TRACKING_INTERVAL_LOOP
Exit TIME_STEP_LOOP
Write endpoint file.
Consolidating pathline segments.
Begin memory deallocation.
Memory deallocation complete.
