                                   MODFLOW 6
                U.S. GEOLOGICAL SURVEY MODULAR HYDROLOGIC MODEL
                             TRANSPORT MODEL (GWT)
                            VERSION 6.6.0 12/20/2024

   MODFLOW 6 compiled Dec 31 2024 17:10:16 with Intel(R) Fortran Intel(R) 64
   Compiler Classic for applications running on Intel(R) 64, Version 2021.7.0
                             Build 20220726_000000

This software has been approved for release by the U.S. Geological 
Survey (USGS). Although the software has been subjected to rigorous 
review, the USGS reserves the right to update the software as needed 
pursuant to further analysis and review. No warranty, expressed or 
implied, is made by the USGS or the U.S. Government as to the 
functionality of the software and related material nor shall the 
fact of release constitute any such warranty. Furthermore, the 
software is released on condition that neither the USGS nor the U.S. 
Government shall be held liable for any damages resulting from its 
authorized or unauthorized use. Also refer to the USGS Water 
Resources Software User Rights Notice for complete use, copyright, 
and distribution information.


As a work of the United States Government, this USGS product is 
in the public domain within the United States. You can copy, 
modify, distribute, and perform the work, even for commercial 
purposes, all without asking permission. Additionally, USGS 
waives copyright and related rights in the work worldwide 
through CC0 1.0 Universal Public Domain Dedication 
(https://creativecommons.org/publicdomain/zero/1.0/).

The following GNU Lesser General Public License (LGPL) libraries
are used in this USGS product:

    SPARSKIT version 2.0
      ilut, luson, and qsplit 
      (https://www-users.cse.umn.edu/~saad/software/SPARSKIT/)

    RCM - Reverse Cuthill McKee Ordering
      (https://people.math.sc.edu/Burkardt/f_src/rcm/rcm.html)

    BLAS - Basic Linear Algebra Subprograms Level 1
      (https://people.math.sc.edu/Burkardt/f_src/blas1_d/blas1_d.html)

    SPARSEKIT - Sparse Matrix Utility Package
      amux, dperm, dvperm, rperm, and cperm
      (https://people.sc.fsu.edu/~jburkardt/f77_src/sparsekit/sparsekit.html)

The following BSD-3 License libraries are used in this USGS product:

    Modern Fortran DAG Library
      Copyright (c) 2018, Jacob Williams
      All rights reserved.
      (https://github.com/jacobwilliams/daglib)

MODFLOW 6 compiler options: /O2 /heap-arrays:0 /fpe:0 /traceback /nologo /fpp
/c /module:win64\mod_mf6\ /object:win64\obj_mf6\

System command used to initiate simulation:
C:\Users\gross.DESKTOP-AIRQM2M\anaconda3\Scripts\mf6.exe

MODFLOW was compiled using uniform precision.

Real Variables
  KIND: 8
  TINY (smallest non-zero value):    2.225074-308
  HUGE (largest value):    1.797693+308
  PRECISION: 15
  SIZE IN BITS: 64

Integer Variables
  KIND: 4
  HUGE (largest value): 2147483647
  SIZE IN BITS: 32

Long Integer Variables
  KIND: 8
  HUGE (largest value): 9223372036854775807
  SIZE IN BITS: 64

Logical Variables
  KIND: 4
  SIZE IN BITS: 32
 
 NAMEFILE OPTIONS:
    FLOWS WILL BE SAVED TO BUDGET FILE SPECIFIED IN OUTPUT CONTROL
 END NAMEFILE OPTIONS:

 DIS -- STRUCTURED GRID DISCRETIZATION PACKAGE, VERSION 2 : 3/27/2014 - INPUT READ FROM MEMPATH: __INPUT__/TRANS/DIS                               


 DSP-- DISPERSION PACKAGE, VERSION 1, 1/24/2018 INPUT READ FROM MEMPATH: __INPUT__/TRANS/DSP                               


 Setting Discretization Options
    Model length unit [0=UND, 1=FEET, 2=METERS, 3=CENTIMETERS] set as 3
 End Setting Discretization Options

 Setting Discretization Dimensions
    NLAY = 1
    NROW = 1
    NCOL = 101
 End Setting Discretization Dimensions

 Setting Discretization Griddata
    DELR set from input file
    DELC set from input file
    TOP set from input file
    BOTM set from input file
 End Setting Discretization Griddata


 FMI -- FLOW MODEL INTERFACE, VERSION 2, 8/17/2023 INPUT READ FROM UNIT 1006


 # File generated by Flopy version 3.9.1 on 02/17/2025 at 14:55:43.
 PROCESSING FMI OPTIONS
 END OF FMI OPTIONS
 PROCESSING FMI PACKAGEDATA

 OPENED ../mf6gwf/flow.hds
 FILE TYPE:DATA(BINARY)   UNIT 1015   STATUS:UNKNOWN             
 FORMAT:UNFORMATTED            ACCESS:STREAM              
 ACTION:READWRITE           

Reading binary file to determine number of records per time step.
Detected 1 unique records in binary file.

 OPENED ../mf6gwf/flow.bud
 FILE TYPE:DATA(BINARY)   UNIT 1016   STATUS:UNKNOWN             
 FORMAT:UNFORMATTED            ACCESS:STREAM              
 ACTION:READWRITE           

Reading budget file to determine number of terms per time step.
    1.00000        FLOW-JA-FACE                 
    1.00000          DATA-SPDIS NPF             
    1.00000            DATA-SAT NPF             
    1.00000                 WEL WEL-1           
    1.00000                 CHD CHD_0           
Detected 5 unique flow terms in budget file.
 END OF FMI PACKAGEDATA

 ADV-- ADVECTION PACKAGE, VERSION 1, 8/25/2017 INPUT READ FROM UNIT 1008


 # File generated by Flopy version 3.9.1 on 02/17/2025 at 14:55:43.
 PROCESSING ADVECTION OPTIONS
    ADVECTION WEIGHTING SCHEME HAS BEEN SET TO: UPSTREAM
 END OF ADVECTION OPTIONS
 Setting DSP Options
    XT3D formulation [0=INACTIVE, 1=ACTIVE, 3=ACTIVE RHS] set to: 0
 End Setting DSP Options

 Setting DSP Griddata
    ALH set from input file
    ATH1 set from input file
 End Setting DSP Griddata

    STRT set from input file

 MST -- MOBILE STORAGE AND TRANSFER PACKAGE, VERSION 1, 7/29/2020 INPUT READ FROM UNIT 1007


 # File generated by Flopy version 3.9.1 on 02/17/2025 at 14:55:43.
 PROCESSING MOBILE STORAGE AND TRANSFER OPTIONS
    LANGMUIR SORPTION IS ACTIVE. 
 END OF MOBILE STORAGE AND TRANSFER OPTIONS
 PROCESSING GRIDDATA

   MOBILE DOMAIN POROSITY =  0.3700000    

             BULK DENSITY =   1.587000    

 DISTRIBUTION COEFFICIENT =   100.0000    

    SECOND SORPTION PARAM =  0.3000000E-02
 END PROCESSING GRIDDATA

 SSM -- SOURCE-SINK MIXING PACKAGE, VERSION 1, 8/25/2017 INPUT READ FROM UNIT 1010


 # File generated by Flopy version 3.9.1 on 02/17/2025 at 14:55:43.
 PROCESSING SSM OPTIONS
 END OF SSM OPTIONS
 PROCESSING SOURCES
 AUX SOURCE DETECTED.
    USING AUX COLUMN 1 IN PACKAGE WEL-1
 END PROCESSING SOURCES
 OPTIONAL FILEINPUT BLOCK NOT FOUND.  CONTINUING.

The observation utility is active for "TRANS"
 # File generated by Flopy version 3.9.1 on 02/17/2025 at 14:55:43.

Processing observation options:

Text output number of digits of precision set to: 10
The PRINT_INPUT option has been specified.


 OBSERVATIONS READ FROM FILE "trans.obs"
 ----------------------------------------------------------------------------------------------------------------------------------------------------------------------------------------------------------------------------
 NAME                                     TYPE                                       TIME         LOCATION DATA                              OUTPUT FILENAME                                                                 
 ----------------------------------------------------------------------------------------------------------------------------------------------------------------------------------------------------------------------------
 X008                                     CONTINUOUS  CONCENTRATION                  ALL TIMES    "  1 1 51"                                 trans.obs.csv                                                                   
 ----------------------------------------------------------------------------------------------------------------------------------------------------------------------------------------------------------------------------


      THE LAST TIME STEP WILL BE PRINTED
      THE LAST TIME STEP WILL BE PRINTED
 # File generated by Flopy version 3.9.1 on 02/17/2025 at 14:55:43.

 PROCESSING OC OPTIONS

    BUDGET INFORMATION WILL BE WRITTEN TO:
      UNIT NUMBER: 1018
      FILE NAME: trans.cbc

 OPENED trans.cbc
 FILE TYPE:DATA(BINARY)   UNIT 1018   STATUS:REPLACE             
 FORMAT:UNFORMATTED            ACCESS:STREAM              
 ACTION:READWRITE           

    CONCENTRATION INFORMATION WILL BE WRITTEN TO:
      UNIT NUMBER: 1019
      FILE NAME: trans.ucn

 OPENED trans.ucn
 FILE TYPE:DATA(BINARY)   UNIT 1019   STATUS:REPLACE             
 FORMAT:UNFORMATTED            ACCESS:STREAM              
 ACTION:READWRITE           

 END OF OC OPTIONS

start timestep kper="1" kstp="1" mode="normal"


 BEGIN READING OUTPUT CONTROL FOR STRESS PERIOD 1
      ALL TIME STEPS WILL BE SAVED
      THE LAST TIME STEP WILL BE SAVED
      THE LAST TIME STEP WILL BE PRINTED
      THE LAST TIME STEP WILL BE PRINTED

 END READING OUTPUT CONTROL FOR STRESS PERIOD 1

 FMI READING BUDGET TERMS FOR KSTP 1 KPER 1
    1.00000        FLOW-JA-FACE                 
    1.00000          DATA-SPDIS NPF             
    1.00000            DATA-SAT NPF             
    1.00000                 WEL WEL-1           
    1.00000                 CHD CHD_0           

 FMI READING HEAD FOR KSTP 1 KPER 1

 CONCENTRATION WILL BE SAVED ON UNIT 1019 AT END OF TIME STEP    1, STRESS PERIOD    1

end timestep


start timestep kper="1" kstp="2" mode="normal"


 FMI READING BUDGET TERMS FOR KSTP 2 KPER 1
    2.00000        FLOW-JA-FACE                 
    2.00000          DATA-SPDIS NPF             
    2.00000            DATA-SAT NPF             
    2.00000                 WEL WEL-1           
    2.00000                 CHD CHD_0           

 FMI READING HEAD FOR KSTP 2 KPER 1

 CONCENTRATION WILL BE SAVED ON UNIT 1019 AT END OF TIME STEP    2, STRESS PERIOD    1

end timestep


start timestep kper="1" kstp="3" mode="normal"


 FMI READING BUDGET TERMS FOR KSTP 3 KPER 1
    3.00000        FLOW-JA-FACE                 
    3.00000          DATA-SPDIS NPF             
    3.00000            DATA-SAT NPF             
    3.00000                 WEL WEL-1           
    3.00000                 CHD CHD_0           

 FMI READING HEAD FOR KSTP 3 KPER 1

 CONCENTRATION WILL BE SAVED ON UNIT 1019 AT END OF TIME STEP    3, STRESS PERIOD    1

end timestep


start timestep kper="1" kstp="4" mode="normal"


 FMI READING BUDGET TERMS FOR KSTP 4 KPER 1
    4.00000        FLOW-JA-FACE                 
    4.00000          DATA-SPDIS NPF             
    4.00000            DATA-SAT NPF             
    4.00000                 WEL WEL-1           
    4.00000                 CHD CHD_0           

 FMI READING HEAD FOR KSTP 4 KPER 1

 CONCENTRATION WILL BE SAVED ON UNIT 1019 AT END OF TIME STEP    4, STRESS PERIOD    1

end timestep


start timestep kper="1" kstp="5" mode="normal"


 FMI READING BUDGET TERMS FOR KSTP 5 KPER 1
    5.00000        FLOW-JA-FACE                 
    5.00000          DATA-SPDIS NPF             
    5.00000            DATA-SAT NPF             
    5.00000                 WEL WEL-1           
    5.00000                 CHD CHD_0           

 FMI READING HEAD FOR KSTP 5 KPER 1

 CONCENTRATION WILL BE SAVED ON UNIT 1019 AT END OF TIME STEP    5, STRESS PERIOD    1

end timestep


start timestep kper="1" kstp="6" mode="normal"


 FMI READING BUDGET TERMS FOR KSTP 6 KPER 1
    6.00000        FLOW-JA-FACE                 
    6.00000          DATA-SPDIS NPF             
    6.00000            DATA-SAT NPF             
    6.00000                 WEL WEL-1           
    6.00000                 CHD CHD_0           

 FMI READING HEAD FOR KSTP 6 KPER 1

 CONCENTRATION WILL BE SAVED ON UNIT 1019 AT END OF TIME STEP    6, STRESS PERIOD    1

end timestep


start timestep kper="1" kstp="7" mode="normal"


 FMI READING BUDGET TERMS FOR KSTP 7 KPER 1
    7.00000        FLOW-JA-FACE                 
    7.00000          DATA-SPDIS NPF             
    7.00000            DATA-SAT NPF             
    7.00000                 WEL WEL-1           
    7.00000                 CHD CHD_0           

 FMI READING HEAD FOR KSTP 7 KPER 1

 CONCENTRATION WILL BE SAVED ON UNIT 1019 AT END OF TIME STEP    7, STRESS PERIOD    1

end timestep


start timestep kper="1" kstp="8" mode="normal"


 FMI READING BUDGET TERMS FOR KSTP 8 KPER 1
    8.00000        FLOW-JA-FACE                 
    8.00000          DATA-SPDIS NPF             
    8.00000            DATA-SAT NPF             
    8.00000                 WEL WEL-1           
    8.00000                 CHD CHD_0           

 FMI READING HEAD FOR KSTP 8 KPER 1

 CONCENTRATION WILL BE SAVED ON UNIT 1019 AT END OF TIME STEP    8, STRESS PERIOD    1

end timestep


start timestep kper="1" kstp="9" mode="normal"


 FMI READING BUDGET TERMS FOR KSTP 9 KPER 1
    9.00000        FLOW-JA-FACE                 
    9.00000          DATA-SPDIS NPF             
    9.00000            DATA-SAT NPF             
    9.00000                 WEL WEL-1           
    9.00000                 CHD CHD_0           

 FMI READING HEAD FOR KSTP 9 KPER 1

 CONCENTRATION WILL BE SAVED ON UNIT 1019 AT END OF TIME STEP    9, STRESS PERIOD    1

end timestep


start timestep kper="1" kstp="10" mode="normal"


 FMI READING BUDGET TERMS FOR KSTP 10 KPER 1
    10.0000        FLOW-JA-FACE                 
    10.0000          DATA-SPDIS NPF             
    10.0000            DATA-SAT NPF             
    10.0000                 WEL WEL-1           
    10.0000                 CHD CHD_0           

 FMI READING HEAD FOR KSTP 10 KPER 1

 CONCENTRATION WILL BE SAVED ON UNIT 1019 AT END OF TIME STEP   10, STRESS PERIOD    1

end timestep


start timestep kper="1" kstp="11" mode="normal"


 FMI READING BUDGET TERMS FOR KSTP 11 KPER 1
    11.0000        FLOW-JA-FACE                 
    11.0000          DATA-SPDIS NPF             
    11.0000            DATA-SAT NPF             
    11.0000                 WEL WEL-1           
    11.0000                 CHD CHD_0           

 FMI READING HEAD FOR KSTP 11 KPER 1

 CONCENTRATION WILL BE SAVED ON UNIT 1019 AT END OF TIME STEP   11, STRESS PERIOD    1

end timestep


start timestep kper="1" kstp="12" mode="normal"


 FMI READING BUDGET TERMS FOR KSTP 12 KPER 1
    12.0000        FLOW-JA-FACE                 
    12.0000          DATA-SPDIS NPF             
    12.0000            DATA-SAT NPF             
    12.0000                 WEL WEL-1           
    12.0000                 CHD CHD_0           

 FMI READING HEAD FOR KSTP 12 KPER 1

 CONCENTRATION WILL BE SAVED ON UNIT 1019 AT END OF TIME STEP   12, STRESS PERIOD    1

end timestep


start timestep kper="1" kstp="13" mode="normal"


 FMI READING BUDGET TERMS FOR KSTP 13 KPER 1
    13.0000        FLOW-JA-FACE                 
    13.0000          DATA-SPDIS NPF             
    13.0000            DATA-SAT NPF             
    13.0000                 WEL WEL-1           
    13.0000                 CHD CHD_0           

 FMI READING HEAD FOR KSTP 13 KPER 1

 CONCENTRATION WILL BE SAVED ON UNIT 1019 AT END OF TIME STEP   13, STRESS PERIOD    1

end timestep


start timestep kper="1" kstp="14" mode="normal"


 FMI READING BUDGET TERMS FOR KSTP 14 KPER 1
    14.0000        FLOW-JA-FACE                 
    14.0000          DATA-SPDIS NPF             
    14.0000            DATA-SAT NPF             
    14.0000                 WEL WEL-1           
    14.0000                 CHD CHD_0           

 FMI READING HEAD FOR KSTP 14 KPER 1

 CONCENTRATION WILL BE SAVED ON UNIT 1019 AT END OF TIME STEP   14, STRESS PERIOD    1

end timestep


start timestep kper="1" kstp="15" mode="normal"


 FMI READING BUDGET TERMS FOR KSTP 15 KPER 1
    15.0000        FLOW-JA-FACE                 
    15.0000          DATA-SPDIS NPF             
    15.0000            DATA-SAT NPF             
    15.0000                 WEL WEL-1           
    15.0000                 CHD CHD_0           

 FMI READING HEAD FOR KSTP 15 KPER 1

 CONCENTRATION WILL BE SAVED ON UNIT 1019 AT END OF TIME STEP   15, STRESS PERIOD    1

end timestep


start timestep kper="1" kstp="16" mode="normal"


 FMI READING BUDGET TERMS FOR KSTP 16 KPER 1
    16.0000        FLOW-JA-FACE                 
    16.0000          DATA-SPDIS NPF             
    16.0000            DATA-SAT NPF             
    16.0000                 WEL WEL-1           
    16.0000                 CHD CHD_0           

 FMI READING HEAD FOR KSTP 16 KPER 1

 CONCENTRATION WILL BE SAVED ON UNIT 1019 AT END OF TIME STEP   16, STRESS PERIOD    1

end timestep


start timestep kper="1" kstp="17" mode="normal"


 FMI READING BUDGET TERMS FOR KSTP 17 KPER 1
    17.0000        FLOW-JA-FACE                 
    17.0000          DATA-SPDIS NPF             
    17.0000            DATA-SAT NPF             
    17.0000                 WEL WEL-1           
    17.0000                 CHD CHD_0           

 FMI READING HEAD FOR KSTP 17 KPER 1

 CONCENTRATION WILL BE SAVED ON UNIT 1019 AT END OF TIME STEP   17, STRESS PERIOD    1

end timestep


start timestep kper="1" kstp="18" mode="normal"


 FMI READING BUDGET TERMS FOR KSTP 18 KPER 1
    18.0000        FLOW-JA-FACE                 
    18.0000          DATA-SPDIS NPF             
    18.0000            DATA-SAT NPF             
    18.0000                 WEL WEL-1           
    18.0000                 CHD CHD_0           

 FMI READING HEAD FOR KSTP 18 KPER 1

 CONCENTRATION WILL BE SAVED ON UNIT 1019 AT END OF TIME STEP   18, STRESS PERIOD    1

end timestep


start timestep kper="1" kstp="19" mode="normal"


 FMI READING BUDGET TERMS FOR KSTP 19 KPER 1
    19.0000        FLOW-JA-FACE                 
    19.0000          DATA-SPDIS NPF             
    19.0000            DATA-SAT NPF             
    19.0000                 WEL WEL-1           
    19.0000                 CHD CHD_0           

 FMI READING HEAD FOR KSTP 19 KPER 1

 CONCENTRATION WILL BE SAVED ON UNIT 1019 AT END OF TIME STEP   19, STRESS PERIOD    1

end timestep


start timestep kper="1" kstp="20" mode="normal"


 FMI READING BUDGET TERMS FOR KSTP 20 KPER 1
    20.0000        FLOW-JA-FACE                 
    20.0000          DATA-SPDIS NPF             
    20.0000            DATA-SAT NPF             
    20.0000                 WEL WEL-1           
    20.0000                 CHD CHD_0           

 FMI READING HEAD FOR KSTP 20 KPER 1

 CONCENTRATION WILL BE SAVED ON UNIT 1019 AT END OF TIME STEP   20, STRESS PERIOD    1

end timestep


start timestep kper="1" kstp="21" mode="normal"


 FMI READING BUDGET TERMS FOR KSTP 21 KPER 1
    21.0000        FLOW-JA-FACE                 
    21.0000          DATA-SPDIS NPF             
    21.0000            DATA-SAT NPF             
    21.0000                 WEL WEL-1           
    21.0000                 CHD CHD_0           

 FMI READING HEAD FOR KSTP 21 KPER 1

 CONCENTRATION WILL BE SAVED ON UNIT 1019 AT END OF TIME STEP   21, STRESS PERIOD    1

end timestep


start timestep kper="1" kstp="22" mode="normal"


 FMI READING BUDGET TERMS FOR KSTP 22 KPER 1
    22.0000        FLOW-JA-FACE                 
    22.0000          DATA-SPDIS NPF             
    22.0000            DATA-SAT NPF             
    22.0000                 WEL WEL-1           
    22.0000                 CHD CHD_0           

 FMI READING HEAD FOR KSTP 22 KPER 1

 CONCENTRATION WILL BE SAVED ON UNIT 1019 AT END OF TIME STEP   22, STRESS PERIOD    1

end timestep


start timestep kper="1" kstp="23" mode="normal"


 FMI READING BUDGET TERMS FOR KSTP 23 KPER 1
    23.0000        FLOW-JA-FACE                 
    23.0000          DATA-SPDIS NPF             
    23.0000            DATA-SAT NPF             
    23.0000                 WEL WEL-1           
    23.0000                 CHD CHD_0           

 FMI READING HEAD FOR KSTP 23 KPER 1

 CONCENTRATION WILL BE SAVED ON UNIT 1019 AT END OF TIME STEP   23, STRESS PERIOD    1

end timestep


start timestep kper="1" kstp="24" mode="normal"


 FMI READING BUDGET TERMS FOR KSTP 24 KPER 1
    24.0000        FLOW-JA-FACE                 
    24.0000          DATA-SPDIS NPF             
    24.0000            DATA-SAT NPF             
    24.0000                 WEL WEL-1           
    24.0000                 CHD CHD_0           

 FMI READING HEAD FOR KSTP 24 KPER 1

 CONCENTRATION WILL BE SAVED ON UNIT 1019 AT END OF TIME STEP   24, STRESS PERIOD    1

end timestep


start timestep kper="1" kstp="25" mode="normal"


 FMI READING BUDGET TERMS FOR KSTP 25 KPER 1
    25.0000        FLOW-JA-FACE                 
    25.0000          DATA-SPDIS NPF             
    25.0000            DATA-SAT NPF             
    25.0000                 WEL WEL-1           
    25.0000                 CHD CHD_0           

 FMI READING HEAD FOR KSTP 25 KPER 1

 CONCENTRATION WILL BE SAVED ON UNIT 1019 AT END OF TIME STEP   25, STRESS PERIOD    1

end timestep


start timestep kper="1" kstp="26" mode="normal"


 FMI READING BUDGET TERMS FOR KSTP 26 KPER 1
    26.0000        FLOW-JA-FACE                 
    26.0000          DATA-SPDIS NPF             
    26.0000            DATA-SAT NPF             
    26.0000                 WEL WEL-1           
    26.0000                 CHD CHD_0           

 FMI READING HEAD FOR KSTP 26 KPER 1

 CONCENTRATION WILL BE SAVED ON UNIT 1019 AT END OF TIME STEP   26, STRESS PERIOD    1

end timestep


start timestep kper="1" kstp="27" mode="normal"


 FMI READING BUDGET TERMS FOR KSTP 27 KPER 1
    27.0000        FLOW-JA-FACE                 
    27.0000          DATA-SPDIS NPF             
    27.0000            DATA-SAT NPF             
    27.0000                 WEL WEL-1           
    27.0000                 CHD CHD_0           

 FMI READING HEAD FOR KSTP 27 KPER 1

 CONCENTRATION WILL BE SAVED ON UNIT 1019 AT END OF TIME STEP   27, STRESS PERIOD    1

end timestep


start timestep kper="1" kstp="28" mode="normal"


 FMI READING BUDGET TERMS FOR KSTP 28 KPER 1
    28.0000        FLOW-JA-FACE                 
    28.0000          DATA-SPDIS NPF             
    28.0000            DATA-SAT NPF             
    28.0000                 WEL WEL-1           
    28.0000                 CHD CHD_0           

 FMI READING HEAD FOR KSTP 28 KPER 1

 CONCENTRATION WILL BE SAVED ON UNIT 1019 AT END OF TIME STEP   28, STRESS PERIOD    1

end timestep


start timestep kper="1" kstp="29" mode="normal"


 FMI READING BUDGET TERMS FOR KSTP 29 KPER 1
    29.0000        FLOW-JA-FACE                 
    29.0000          DATA-SPDIS NPF             
    29.0000            DATA-SAT NPF             
    29.0000                 WEL WEL-1           
    29.0000                 CHD CHD_0           

 FMI READING HEAD FOR KSTP 29 KPER 1

 CONCENTRATION WILL BE SAVED ON UNIT 1019 AT END OF TIME STEP   29, STRESS PERIOD    1

end timestep


start timestep kper="1" kstp="30" mode="normal"


 FMI READING BUDGET TERMS FOR KSTP 30 KPER 1
    30.0000        FLOW-JA-FACE                 
    30.0000          DATA-SPDIS NPF             
    30.0000            DATA-SAT NPF             
    30.0000                 WEL WEL-1           
    30.0000                 CHD CHD_0           

 FMI READING HEAD FOR KSTP 30 KPER 1

 CONCENTRATION WILL BE SAVED ON UNIT 1019 AT END OF TIME STEP   30, STRESS PERIOD    1

end timestep


start timestep kper="1" kstp="31" mode="normal"


 FMI READING BUDGET TERMS FOR KSTP 31 KPER 1
    31.0000        FLOW-JA-FACE                 
    31.0000          DATA-SPDIS NPF             
    31.0000            DATA-SAT NPF             
    31.0000                 WEL WEL-1           
    31.0000                 CHD CHD_0           

 FMI READING HEAD FOR KSTP 31 KPER 1

 CONCENTRATION WILL BE SAVED ON UNIT 1019 AT END OF TIME STEP   31, STRESS PERIOD    1

end timestep


start timestep kper="1" kstp="32" mode="normal"


 FMI READING BUDGET TERMS FOR KSTP 32 KPER 1
    32.0000        FLOW-JA-FACE                 
    32.0000          DATA-SPDIS NPF             
    32.0000            DATA-SAT NPF             
    32.0000                 WEL WEL-1           
    32.0000                 CHD CHD_0           

 FMI READING HEAD FOR KSTP 32 KPER 1

 CONCENTRATION WILL BE SAVED ON UNIT 1019 AT END OF TIME STEP   32, STRESS PERIOD    1

end timestep


start timestep kper="1" kstp="33" mode="normal"


 FMI READING BUDGET TERMS FOR KSTP 33 KPER 1
    33.0000        FLOW-JA-FACE                 
    33.0000          DATA-SPDIS NPF             
    33.0000            DATA-SAT NPF             
    33.0000                 WEL WEL-1           
    33.0000                 CHD CHD_0           

 FMI READING HEAD FOR KSTP 33 KPER 1

 CONCENTRATION WILL BE SAVED ON UNIT 1019 AT END OF TIME STEP   33, STRESS PERIOD    1

end timestep


start timestep kper="1" kstp="34" mode="normal"


 FMI READING BUDGET TERMS FOR KSTP 34 KPER 1
    34.0000        FLOW-JA-FACE                 
    34.0000          DATA-SPDIS NPF             
    34.0000            DATA-SAT NPF             
    34.0000                 WEL WEL-1           
    34.0000                 CHD CHD_0           

 FMI READING HEAD FOR KSTP 34 KPER 1

 CONCENTRATION WILL BE SAVED ON UNIT 1019 AT END OF TIME STEP   34, STRESS PERIOD    1

end timestep


start timestep kper="1" kstp="35" mode="normal"


 FMI READING BUDGET TERMS FOR KSTP 35 KPER 1
    35.0000        FLOW-JA-FACE                 
    35.0000          DATA-SPDIS NPF             
    35.0000            DATA-SAT NPF             
    35.0000                 WEL WEL-1           
    35.0000                 CHD CHD_0           

 FMI READING HEAD FOR KSTP 35 KPER 1

 CONCENTRATION WILL BE SAVED ON UNIT 1019 AT END OF TIME STEP   35, STRESS PERIOD    1

end timestep


start timestep kper="1" kstp="36" mode="normal"


 FMI READING BUDGET TERMS FOR KSTP 36 KPER 1
    36.0000        FLOW-JA-FACE                 
    36.0000          DATA-SPDIS NPF             
    36.0000            DATA-SAT NPF             
    36.0000                 WEL WEL-1           
    36.0000                 CHD CHD_0           

 FMI READING HEAD FOR KSTP 36 KPER 1

 CONCENTRATION WILL BE SAVED ON UNIT 1019 AT END OF TIME STEP   36, STRESS PERIOD    1

end timestep


start timestep kper="1" kstp="37" mode="normal"


 FMI READING BUDGET TERMS FOR KSTP 37 KPER 1
    37.0000        FLOW-JA-FACE                 
    37.0000          DATA-SPDIS NPF             
    37.0000            DATA-SAT NPF             
    37.0000                 WEL WEL-1           
    37.0000                 CHD CHD_0           

 FMI READING HEAD FOR KSTP 37 KPER 1

 CONCENTRATION WILL BE SAVED ON UNIT 1019 AT END OF TIME STEP   37, STRESS PERIOD    1

end timestep


start timestep kper="1" kstp="38" mode="normal"


 FMI READING BUDGET TERMS FOR KSTP 38 KPER 1
    38.0000        FLOW-JA-FACE                 
    38.0000          DATA-SPDIS NPF             
    38.0000            DATA-SAT NPF             
    38.0000                 WEL WEL-1           
    38.0000                 CHD CHD_0           

 FMI READING HEAD FOR KSTP 38 KPER 1

 CONCENTRATION WILL BE SAVED ON UNIT 1019 AT END OF TIME STEP   38, STRESS PERIOD    1

end timestep


start timestep kper="1" kstp="39" mode="normal"


 FMI READING BUDGET TERMS FOR KSTP 39 KPER 1
    39.0000        FLOW-JA-FACE                 
    39.0000          DATA-SPDIS NPF             
    39.0000            DATA-SAT NPF             
    39.0000                 WEL WEL-1           
    39.0000                 CHD CHD_0           

 FMI READING HEAD FOR KSTP 39 KPER 1

 CONCENTRATION WILL BE SAVED ON UNIT 1019 AT END OF TIME STEP   39, STRESS PERIOD    1

end timestep


start timestep kper="1" kstp="40" mode="normal"


 FMI READING BUDGET TERMS FOR KSTP 40 KPER 1
    40.0000        FLOW-JA-FACE                 
    40.0000          DATA-SPDIS NPF             
    40.0000            DATA-SAT NPF             
    40.0000                 WEL WEL-1           
    40.0000                 CHD CHD_0           

 FMI READING HEAD FOR KSTP 40 KPER 1

 CONCENTRATION WILL BE SAVED ON UNIT 1019 AT END OF TIME STEP   40, STRESS PERIOD    1

end timestep


start timestep kper="1" kstp="41" mode="normal"


 FMI READING BUDGET TERMS FOR KSTP 41 KPER 1
    41.0000        FLOW-JA-FACE                 
    41.0000          DATA-SPDIS NPF             
    41.0000            DATA-SAT NPF             
    41.0000                 WEL WEL-1           
    41.0000                 CHD CHD_0           

 FMI READING HEAD FOR KSTP 41 KPER 1

 CONCENTRATION WILL BE SAVED ON UNIT 1019 AT END OF TIME STEP   41, STRESS PERIOD    1

end timestep


start timestep kper="1" kstp="42" mode="normal"


 FMI READING BUDGET TERMS FOR KSTP 42 KPER 1
    42.0000        FLOW-JA-FACE                 
    42.0000          DATA-SPDIS NPF             
    42.0000            DATA-SAT NPF             
    42.0000                 WEL WEL-1           
    42.0000                 CHD CHD_0           

 FMI READING HEAD FOR KSTP 42 KPER 1

 CONCENTRATION WILL BE SAVED ON UNIT 1019 AT END OF TIME STEP   42, STRESS PERIOD    1

end timestep


start timestep kper="1" kstp="43" mode="normal"


 FMI READING BUDGET TERMS FOR KSTP 43 KPER 1
    43.0000        FLOW-JA-FACE                 
    43.0000          DATA-SPDIS NPF             
    43.0000            DATA-SAT NPF             
    43.0000                 WEL WEL-1           
    43.0000                 CHD CHD_0           

 FMI READING HEAD FOR KSTP 43 KPER 1

 CONCENTRATION WILL BE SAVED ON UNIT 1019 AT END OF TIME STEP   43, STRESS PERIOD    1

end timestep


start timestep kper="1" kstp="44" mode="normal"


 FMI READING BUDGET TERMS FOR KSTP 44 KPER 1
    44.0000        FLOW-JA-FACE                 
    44.0000          DATA-SPDIS NPF             
    44.0000            DATA-SAT NPF             
    44.0000                 WEL WEL-1           
    44.0000                 CHD CHD_0           

 FMI READING HEAD FOR KSTP 44 KPER 1

 CONCENTRATION WILL BE SAVED ON UNIT 1019 AT END OF TIME STEP   44, STRESS PERIOD    1

end timestep


start timestep kper="1" kstp="45" mode="normal"


 FMI READING BUDGET TERMS FOR KSTP 45 KPER 1
    45.0000        FLOW-JA-FACE                 
    45.0000          DATA-SPDIS NPF             
    45.0000            DATA-SAT NPF             
    45.0000                 WEL WEL-1           
    45.0000                 CHD CHD_0           

 FMI READING HEAD FOR KSTP 45 KPER 1

 CONCENTRATION WILL BE SAVED ON UNIT 1019 AT END OF TIME STEP   45, STRESS PERIOD    1

end timestep


start timestep kper="1" kstp="46" mode="normal"


 FMI READING BUDGET TERMS FOR KSTP 46 KPER 1
    46.0000        FLOW-JA-FACE                 
    46.0000          DATA-SPDIS NPF             
    46.0000            DATA-SAT NPF             
    46.0000                 WEL WEL-1           
    46.0000                 CHD CHD_0           

 FMI READING HEAD FOR KSTP 46 KPER 1

 CONCENTRATION WILL BE SAVED ON UNIT 1019 AT END OF TIME STEP   46, STRESS PERIOD    1

end timestep


start timestep kper="1" kstp="47" mode="normal"


 FMI READING BUDGET TERMS FOR KSTP 47 KPER 1
    47.0000        FLOW-JA-FACE                 
    47.0000          DATA-SPDIS NPF             
    47.0000            DATA-SAT NPF             
    47.0000                 WEL WEL-1           
    47.0000                 CHD CHD_0           

 FMI READING HEAD FOR KSTP 47 KPER 1

 CONCENTRATION WILL BE SAVED ON UNIT 1019 AT END OF TIME STEP   47, STRESS PERIOD    1

end timestep


start timestep kper="1" kstp="48" mode="normal"


 FMI READING BUDGET TERMS FOR KSTP 48 KPER 1
    48.0000        FLOW-JA-FACE                 
    48.0000          DATA-SPDIS NPF             
    48.0000            DATA-SAT NPF             
    48.0000                 WEL WEL-1           
    48.0000                 CHD CHD_0           

 FMI READING HEAD FOR KSTP 48 KPER 1

 CONCENTRATION WILL BE SAVED ON UNIT 1019 AT END OF TIME STEP   48, STRESS PERIOD    1

end timestep


start timestep kper="1" kstp="49" mode="normal"


 FMI READING BUDGET TERMS FOR KSTP 49 KPER 1
    49.0000        FLOW-JA-FACE                 
    49.0000          DATA-SPDIS NPF             
    49.0000            DATA-SAT NPF             
    49.0000                 WEL WEL-1           
    49.0000                 CHD CHD_0           

 FMI READING HEAD FOR KSTP 49 KPER 1

 CONCENTRATION WILL BE SAVED ON UNIT 1019 AT END OF TIME STEP   49, STRESS PERIOD    1

end timestep


start timestep kper="1" kstp="50" mode="normal"


 FMI READING BUDGET TERMS FOR KSTP 50 KPER 1
    50.0000        FLOW-JA-FACE                 
    50.0000          DATA-SPDIS NPF             
    50.0000            DATA-SAT NPF             
    50.0000                 WEL WEL-1           
    50.0000                 CHD CHD_0           

 FMI READING HEAD FOR KSTP 50 KPER 1

 CONCENTRATION WILL BE SAVED ON UNIT 1019 AT END OF TIME STEP   50, STRESS PERIOD    1

end timestep


start timestep kper="1" kstp="51" mode="normal"


 FMI READING BUDGET TERMS FOR KSTP 51 KPER 1
    51.0000        FLOW-JA-FACE                 
    51.0000          DATA-SPDIS NPF             
    51.0000            DATA-SAT NPF             
    51.0000                 WEL WEL-1           
    51.0000                 CHD CHD_0           

 FMI READING HEAD FOR KSTP 51 KPER 1

 CONCENTRATION WILL BE SAVED ON UNIT 1019 AT END OF TIME STEP   51, STRESS PERIOD    1

end timestep


start timestep kper="1" kstp="52" mode="normal"


 FMI READING BUDGET TERMS FOR KSTP 52 KPER 1
    52.0000        FLOW-JA-FACE                 
    52.0000          DATA-SPDIS NPF             
    52.0000            DATA-SAT NPF             
    52.0000                 WEL WEL-1           
    52.0000                 CHD CHD_0           

 FMI READING HEAD FOR KSTP 52 KPER 1

 CONCENTRATION WILL BE SAVED ON UNIT 1019 AT END OF TIME STEP   52, STRESS PERIOD    1

end timestep


start timestep kper="1" kstp="53" mode="normal"


 FMI READING BUDGET TERMS FOR KSTP 53 KPER 1
    53.0000        FLOW-JA-FACE                 
    53.0000          DATA-SPDIS NPF             
    53.0000            DATA-SAT NPF             
    53.0000                 WEL WEL-1           
    53.0000                 CHD CHD_0           

 FMI READING HEAD FOR KSTP 53 KPER 1

 CONCENTRATION WILL BE SAVED ON UNIT 1019 AT END OF TIME STEP   53, STRESS PERIOD    1

end timestep


start timestep kper="1" kstp="54" mode="normal"


 FMI READING BUDGET TERMS FOR KSTP 54 KPER 1
    54.0000        FLOW-JA-FACE                 
    54.0000          DATA-SPDIS NPF             
    54.0000            DATA-SAT NPF             
    54.0000                 WEL WEL-1           
    54.0000                 CHD CHD_0           

 FMI READING HEAD FOR KSTP 54 KPER 1

 CONCENTRATION WILL BE SAVED ON UNIT 1019 AT END OF TIME STEP   54, STRESS PERIOD    1

end timestep


start timestep kper="1" kstp="55" mode="normal"


 FMI READING BUDGET TERMS FOR KSTP 55 KPER 1
    55.0000        FLOW-JA-FACE                 
    55.0000          DATA-SPDIS NPF             
    55.0000            DATA-SAT NPF             
    55.0000                 WEL WEL-1           
    55.0000                 CHD CHD_0           

 FMI READING HEAD FOR KSTP 55 KPER 1

 CONCENTRATION WILL BE SAVED ON UNIT 1019 AT END OF TIME STEP   55, STRESS PERIOD    1

end timestep


start timestep kper="1" kstp="56" mode="normal"


 FMI READING BUDGET TERMS FOR KSTP 56 KPER 1
    56.0000        FLOW-JA-FACE                 
    56.0000          DATA-SPDIS NPF             
    56.0000            DATA-SAT NPF             
    56.0000                 WEL WEL-1           
    56.0000                 CHD CHD_0           

 FMI READING HEAD FOR KSTP 56 KPER 1

 CONCENTRATION WILL BE SAVED ON UNIT 1019 AT END OF TIME STEP   56, STRESS PERIOD    1

end timestep


start timestep kper="1" kstp="57" mode="normal"


 FMI READING BUDGET TERMS FOR KSTP 57 KPER 1
    57.0000        FLOW-JA-FACE                 
    57.0000          DATA-SPDIS NPF             
    57.0000            DATA-SAT NPF             
    57.0000                 WEL WEL-1           
    57.0000                 CHD CHD_0           

 FMI READING HEAD FOR KSTP 57 KPER 1

 CONCENTRATION WILL BE SAVED ON UNIT 1019 AT END OF TIME STEP   57, STRESS PERIOD    1

end timestep


start timestep kper="1" kstp="58" mode="normal"


 FMI READING BUDGET TERMS FOR KSTP 58 KPER 1
    58.0000        FLOW-JA-FACE                 
    58.0000          DATA-SPDIS NPF             
    58.0000            DATA-SAT NPF             
    58.0000                 WEL WEL-1           
    58.0000                 CHD CHD_0           

 FMI READING HEAD FOR KSTP 58 KPER 1

 CONCENTRATION WILL BE SAVED ON UNIT 1019 AT END OF TIME STEP   58, STRESS PERIOD    1

end timestep


start timestep kper="1" kstp="59" mode="normal"


 FMI READING BUDGET TERMS FOR KSTP 59 KPER 1
    59.0000        FLOW-JA-FACE                 
    59.0000          DATA-SPDIS NPF             
    59.0000            DATA-SAT NPF             
    59.0000                 WEL WEL-1           
    59.0000                 CHD CHD_0           

 FMI READING HEAD FOR KSTP 59 KPER 1

 CONCENTRATION WILL BE SAVED ON UNIT 1019 AT END OF TIME STEP   59, STRESS PERIOD    1

end timestep


start timestep kper="1" kstp="60" mode="normal"


 FMI READING BUDGET TERMS FOR KSTP 60 KPER 1
    60.0000        FLOW-JA-FACE                 
    60.0000          DATA-SPDIS NPF             
    60.0000            DATA-SAT NPF             
    60.0000                 WEL WEL-1           
    60.0000                 CHD CHD_0           

 FMI READING HEAD FOR KSTP 60 KPER 1

 CONCENTRATION WILL BE SAVED ON UNIT 1019 AT END OF TIME STEP   60, STRESS PERIOD    1

end timestep


start timestep kper="1" kstp="61" mode="normal"


 FMI READING BUDGET TERMS FOR KSTP 61 KPER 1
    61.0000        FLOW-JA-FACE                 
    61.0000          DATA-SPDIS NPF             
    61.0000            DATA-SAT NPF             
    61.0000                 WEL WEL-1           
    61.0000                 CHD CHD_0           

 FMI READING HEAD FOR KSTP 61 KPER 1

 CONCENTRATION WILL BE SAVED ON UNIT 1019 AT END OF TIME STEP   61, STRESS PERIOD    1

end timestep


start timestep kper="1" kstp="62" mode="normal"


 FMI READING BUDGET TERMS FOR KSTP 62 KPER 1
    62.0000        FLOW-JA-FACE                 
    62.0000          DATA-SPDIS NPF             
    62.0000            DATA-SAT NPF             
    62.0000                 WEL WEL-1           
    62.0000                 CHD CHD_0           

 FMI READING HEAD FOR KSTP 62 KPER 1

 CONCENTRATION WILL BE SAVED ON UNIT 1019 AT END OF TIME STEP   62, STRESS PERIOD    1

end timestep


start timestep kper="1" kstp="63" mode="normal"


 FMI READING BUDGET TERMS FOR KSTP 63 KPER 1
    63.0000        FLOW-JA-FACE                 
    63.0000          DATA-SPDIS NPF             
    63.0000            DATA-SAT NPF             
    63.0000                 WEL WEL-1           
    63.0000                 CHD CHD_0           

 FMI READING HEAD FOR KSTP 63 KPER 1

 CONCENTRATION WILL BE SAVED ON UNIT 1019 AT END OF TIME STEP   63, STRESS PERIOD    1

end timestep


start timestep kper="1" kstp="64" mode="normal"


 FMI READING BUDGET TERMS FOR KSTP 64 KPER 1
    64.0000        FLOW-JA-FACE                 
    64.0000          DATA-SPDIS NPF             
    64.0000            DATA-SAT NPF             
    64.0000                 WEL WEL-1           
    64.0000                 CHD CHD_0           

 FMI READING HEAD FOR KSTP 64 KPER 1

 CONCENTRATION WILL BE SAVED ON UNIT 1019 AT END OF TIME STEP   64, STRESS PERIOD    1

end timestep


start timestep kper="1" kstp="65" mode="normal"


 FMI READING BUDGET TERMS FOR KSTP 65 KPER 1
    65.0000        FLOW-JA-FACE                 
    65.0000          DATA-SPDIS NPF             
    65.0000            DATA-SAT NPF             
    65.0000                 WEL WEL-1           
    65.0000                 CHD CHD_0           

 FMI READING HEAD FOR KSTP 65 KPER 1

 CONCENTRATION WILL BE SAVED ON UNIT 1019 AT END OF TIME STEP   65, STRESS PERIOD    1

end timestep


start timestep kper="1" kstp="66" mode="normal"


 FMI READING BUDGET TERMS FOR KSTP 66 KPER 1
    66.0000        FLOW-JA-FACE                 
    66.0000          DATA-SPDIS NPF             
    66.0000            DATA-SAT NPF             
    66.0000                 WEL WEL-1           
    66.0000                 CHD CHD_0           

 FMI READING HEAD FOR KSTP 66 KPER 1

 CONCENTRATION WILL BE SAVED ON UNIT 1019 AT END OF TIME STEP   66, STRESS PERIOD    1

end timestep


start timestep kper="1" kstp="67" mode="normal"


 FMI READING BUDGET TERMS FOR KSTP 67 KPER 1
    67.0000        FLOW-JA-FACE                 
    67.0000          DATA-SPDIS NPF             
    67.0000            DATA-SAT NPF             
    67.0000                 WEL WEL-1           
    67.0000                 CHD CHD_0           

 FMI READING HEAD FOR KSTP 67 KPER 1

 CONCENTRATION WILL BE SAVED ON UNIT 1019 AT END OF TIME STEP   67, STRESS PERIOD    1

end timestep


start timestep kper="1" kstp="68" mode="normal"


 FMI READING BUDGET TERMS FOR KSTP 68 KPER 1
    68.0000        FLOW-JA-FACE                 
    68.0000          DATA-SPDIS NPF             
    68.0000            DATA-SAT NPF             
    68.0000                 WEL WEL-1           
    68.0000                 CHD CHD_0           

 FMI READING HEAD FOR KSTP 68 KPER 1

 CONCENTRATION WILL BE SAVED ON UNIT 1019 AT END OF TIME STEP   68, STRESS PERIOD    1

end timestep


start timestep kper="1" kstp="69" mode="normal"


 FMI READING BUDGET TERMS FOR KSTP 69 KPER 1
    69.0000        FLOW-JA-FACE                 
    69.0000          DATA-SPDIS NPF             
    69.0000            DATA-SAT NPF             
    69.0000                 WEL WEL-1           
    69.0000                 CHD CHD_0           

 FMI READING HEAD FOR KSTP 69 KPER 1

 CONCENTRATION WILL BE SAVED ON UNIT 1019 AT END OF TIME STEP   69, STRESS PERIOD    1

end timestep


start timestep kper="1" kstp="70" mode="normal"


 FMI READING BUDGET TERMS FOR KSTP 70 KPER 1
    70.0000        FLOW-JA-FACE                 
    70.0000          DATA-SPDIS NPF             
    70.0000            DATA-SAT NPF             
    70.0000                 WEL WEL-1           
    70.0000                 CHD CHD_0           

 FMI READING HEAD FOR KSTP 70 KPER 1

 CONCENTRATION WILL BE SAVED ON UNIT 1019 AT END OF TIME STEP   70, STRESS PERIOD    1

end timestep


start timestep kper="1" kstp="71" mode="normal"


 FMI READING BUDGET TERMS FOR KSTP 71 KPER 1
    71.0000        FLOW-JA-FACE                 
    71.0000          DATA-SPDIS NPF             
    71.0000            DATA-SAT NPF             
    71.0000                 WEL WEL-1           
    71.0000                 CHD CHD_0           

 FMI READING HEAD FOR KSTP 71 KPER 1

 CONCENTRATION WILL BE SAVED ON UNIT 1019 AT END OF TIME STEP   71, STRESS PERIOD    1

end timestep


start timestep kper="1" kstp="72" mode="normal"


 FMI READING BUDGET TERMS FOR KSTP 72 KPER 1
    72.0000        FLOW-JA-FACE                 
    72.0000          DATA-SPDIS NPF             
    72.0000            DATA-SAT NPF             
    72.0000                 WEL WEL-1           
    72.0000                 CHD CHD_0           

 FMI READING HEAD FOR KSTP 72 KPER 1

 CONCENTRATION WILL BE SAVED ON UNIT 1019 AT END OF TIME STEP   72, STRESS PERIOD    1

end timestep


start timestep kper="1" kstp="73" mode="normal"


 FMI READING BUDGET TERMS FOR KSTP 73 KPER 1
    73.0000        FLOW-JA-FACE                 
    73.0000          DATA-SPDIS NPF             
    73.0000            DATA-SAT NPF             
    73.0000                 WEL WEL-1           
    73.0000                 CHD CHD_0           

 FMI READING HEAD FOR KSTP 73 KPER 1

 CONCENTRATION WILL BE SAVED ON UNIT 1019 AT END OF TIME STEP   73, STRESS PERIOD    1

end timestep


start timestep kper="1" kstp="74" mode="normal"


 FMI READING BUDGET TERMS FOR KSTP 74 KPER 1
    74.0000        FLOW-JA-FACE                 
    74.0000          DATA-SPDIS NPF             
    74.0000            DATA-SAT NPF             
    74.0000                 WEL WEL-1           
    74.0000                 CHD CHD_0           

 FMI READING HEAD FOR KSTP 74 KPER 1

 CONCENTRATION WILL BE SAVED ON UNIT 1019 AT END OF TIME STEP   74, STRESS PERIOD    1

end timestep


start timestep kper="1" kstp="75" mode="normal"


 FMI READING BUDGET TERMS FOR KSTP 75 KPER 1
    75.0000        FLOW-JA-FACE                 
    75.0000          DATA-SPDIS NPF             
    75.0000            DATA-SAT NPF             
    75.0000                 WEL WEL-1           
    75.0000                 CHD CHD_0           

 FMI READING HEAD FOR KSTP 75 KPER 1

 CONCENTRATION WILL BE SAVED ON UNIT 1019 AT END OF TIME STEP   75, STRESS PERIOD    1

end timestep


start timestep kper="1" kstp="76" mode="normal"


 FMI READING BUDGET TERMS FOR KSTP 76 KPER 1
    76.0000        FLOW-JA-FACE                 
    76.0000          DATA-SPDIS NPF             
    76.0000            DATA-SAT NPF             
    76.0000                 WEL WEL-1           
    76.0000                 CHD CHD_0           

 FMI READING HEAD FOR KSTP 76 KPER 1

 CONCENTRATION WILL BE SAVED ON UNIT 1019 AT END OF TIME STEP   76, STRESS PERIOD    1

end timestep


start timestep kper="1" kstp="77" mode="normal"


 FMI READING BUDGET TERMS FOR KSTP 77 KPER 1
    77.0000        FLOW-JA-FACE                 
    77.0000          DATA-SPDIS NPF             
    77.0000            DATA-SAT NPF             
    77.0000                 WEL WEL-1           
    77.0000                 CHD CHD_0           

 FMI READING HEAD FOR KSTP 77 KPER 1

 CONCENTRATION WILL BE SAVED ON UNIT 1019 AT END OF TIME STEP   77, STRESS PERIOD    1

end timestep


start timestep kper="1" kstp="78" mode="normal"


 FMI READING BUDGET TERMS FOR KSTP 78 KPER 1
    78.0000        FLOW-JA-FACE                 
    78.0000          DATA-SPDIS NPF             
    78.0000            DATA-SAT NPF             
    78.0000                 WEL WEL-1           
    78.0000                 CHD CHD_0           

 FMI READING HEAD FOR KSTP 78 KPER 1

 CONCENTRATION WILL BE SAVED ON UNIT 1019 AT END OF TIME STEP   78, STRESS PERIOD    1

end timestep


start timestep kper="1" kstp="79" mode="normal"


 FMI READING BUDGET TERMS FOR KSTP 79 KPER 1
    79.0000        FLOW-JA-FACE                 
    79.0000          DATA-SPDIS NPF             
    79.0000            DATA-SAT NPF             
    79.0000                 WEL WEL-1           
    79.0000                 CHD CHD_0           

 FMI READING HEAD FOR KSTP 79 KPER 1

 CONCENTRATION WILL BE SAVED ON UNIT 1019 AT END OF TIME STEP   79, STRESS PERIOD    1

end timestep


start timestep kper="1" kstp="80" mode="normal"


 FMI READING BUDGET TERMS FOR KSTP 80 KPER 1
    80.0000        FLOW-JA-FACE                 
    80.0000          DATA-SPDIS NPF             
    80.0000            DATA-SAT NPF             
    80.0000                 WEL WEL-1           
    80.0000                 CHD CHD_0           

 FMI READING HEAD FOR KSTP 80 KPER 1

 CONCENTRATION WILL BE SAVED ON UNIT 1019 AT END OF TIME STEP   80, STRESS PERIOD    1

end timestep


start timestep kper="1" kstp="81" mode="normal"


 FMI READING BUDGET TERMS FOR KSTP 81 KPER 1
    81.0000        FLOW-JA-FACE                 
    81.0000          DATA-SPDIS NPF             
    81.0000            DATA-SAT NPF             
    81.0000                 WEL WEL-1           
    81.0000                 CHD CHD_0           

 FMI READING HEAD FOR KSTP 81 KPER 1

 CONCENTRATION WILL BE SAVED ON UNIT 1019 AT END OF TIME STEP   81, STRESS PERIOD    1

end timestep


start timestep kper="1" kstp="82" mode="normal"


 FMI READING BUDGET TERMS FOR KSTP 82 KPER 1
    82.0000        FLOW-JA-FACE                 
    82.0000          DATA-SPDIS NPF             
    82.0000            DATA-SAT NPF             
    82.0000                 WEL WEL-1           
    82.0000                 CHD CHD_0           

 FMI READING HEAD FOR KSTP 82 KPER 1

 CONCENTRATION WILL BE SAVED ON UNIT 1019 AT END OF TIME STEP   82, STRESS PERIOD    1

end timestep


start timestep kper="1" kstp="83" mode="normal"


 FMI READING BUDGET TERMS FOR KSTP 83 KPER 1
    83.0000        FLOW-JA-FACE                 
    83.0000          DATA-SPDIS NPF             
    83.0000            DATA-SAT NPF             
    83.0000                 WEL WEL-1           
    83.0000                 CHD CHD_0           

 FMI READING HEAD FOR KSTP 83 KPER 1

 CONCENTRATION WILL BE SAVED ON UNIT 1019 AT END OF TIME STEP   83, STRESS PERIOD    1

end timestep


start timestep kper="1" kstp="84" mode="normal"


 FMI READING BUDGET TERMS FOR KSTP 84 KPER 1
    84.0000        FLOW-JA-FACE                 
    84.0000          DATA-SPDIS NPF             
    84.0000            DATA-SAT NPF             
    84.0000                 WEL WEL-1           
    84.0000                 CHD CHD_0           

 FMI READING HEAD FOR KSTP 84 KPER 1

 CONCENTRATION WILL BE SAVED ON UNIT 1019 AT END OF TIME STEP   84, STRESS PERIOD    1

end timestep


start timestep kper="1" kstp="85" mode="normal"


 FMI READING BUDGET TERMS FOR KSTP 85 KPER 1
    85.0000        FLOW-JA-FACE                 
    85.0000          DATA-SPDIS NPF             
    85.0000            DATA-SAT NPF             
    85.0000                 WEL WEL-1           
    85.0000                 CHD CHD_0           

 FMI READING HEAD FOR KSTP 85 KPER 1

 CONCENTRATION WILL BE SAVED ON UNIT 1019 AT END OF TIME STEP   85, STRESS PERIOD    1

end timestep


start timestep kper="1" kstp="86" mode="normal"


 FMI READING BUDGET TERMS FOR KSTP 86 KPER 1
    86.0000        FLOW-JA-FACE                 
    86.0000          DATA-SPDIS NPF             
    86.0000            DATA-SAT NPF             
    86.0000                 WEL WEL-1           
    86.0000                 CHD CHD_0           

 FMI READING HEAD FOR KSTP 86 KPER 1

 CONCENTRATION WILL BE SAVED ON UNIT 1019 AT END OF TIME STEP   86, STRESS PERIOD    1

end timestep


start timestep kper="1" kstp="87" mode="normal"


 FMI READING BUDGET TERMS FOR KSTP 87 KPER 1
    87.0000        FLOW-JA-FACE                 
    87.0000          DATA-SPDIS NPF             
    87.0000            DATA-SAT NPF             
    87.0000                 WEL WEL-1           
    87.0000                 CHD CHD_0           

 FMI READING HEAD FOR KSTP 87 KPER 1

 CONCENTRATION WILL BE SAVED ON UNIT 1019 AT END OF TIME STEP   87, STRESS PERIOD    1

end timestep


start timestep kper="1" kstp="88" mode="normal"


 FMI READING BUDGET TERMS FOR KSTP 88 KPER 1
    88.0000        FLOW-JA-FACE                 
    88.0000          DATA-SPDIS NPF             
    88.0000            DATA-SAT NPF             
    88.0000                 WEL WEL-1           
    88.0000                 CHD CHD_0           

 FMI READING HEAD FOR KSTP 88 KPER 1

 CONCENTRATION WILL BE SAVED ON UNIT 1019 AT END OF TIME STEP   88, STRESS PERIOD    1

end timestep


start timestep kper="1" kstp="89" mode="normal"


 FMI READING BUDGET TERMS FOR KSTP 89 KPER 1
    89.0000        FLOW-JA-FACE                 
    89.0000          DATA-SPDIS NPF             
    89.0000            DATA-SAT NPF             
    89.0000                 WEL WEL-1           
    89.0000                 CHD CHD_0           

 FMI READING HEAD FOR KSTP 89 KPER 1

 CONCENTRATION WILL BE SAVED ON UNIT 1019 AT END OF TIME STEP   89, STRESS PERIOD    1

end timestep


start timestep kper="1" kstp="90" mode="normal"


 FMI READING BUDGET TERMS FOR KSTP 90 KPER 1
    90.0000        FLOW-JA-FACE                 
    90.0000          DATA-SPDIS NPF             
    90.0000            DATA-SAT NPF             
    90.0000                 WEL WEL-1           
    90.0000                 CHD CHD_0           

 FMI READING HEAD FOR KSTP 90 KPER 1

 CONCENTRATION WILL BE SAVED ON UNIT 1019 AT END OF TIME STEP   90, STRESS PERIOD    1

end timestep


start timestep kper="1" kstp="91" mode="normal"


 FMI READING BUDGET TERMS FOR KSTP 91 KPER 1
    91.0000        FLOW-JA-FACE                 
    91.0000          DATA-SPDIS NPF             
    91.0000            DATA-SAT NPF             
    91.0000                 WEL WEL-1           
    91.0000                 CHD CHD_0           

 FMI READING HEAD FOR KSTP 91 KPER 1

 CONCENTRATION WILL BE SAVED ON UNIT 1019 AT END OF TIME STEP   91, STRESS PERIOD    1

end timestep


start timestep kper="1" kstp="92" mode="normal"


 FMI READING BUDGET TERMS FOR KSTP 92 KPER 1
    92.0000        FLOW-JA-FACE                 
    92.0000          DATA-SPDIS NPF             
    92.0000            DATA-SAT NPF             
    92.0000                 WEL WEL-1           
    92.0000                 CHD CHD_0           

 FMI READING HEAD FOR KSTP 92 KPER 1

 CONCENTRATION WILL BE SAVED ON UNIT 1019 AT END OF TIME STEP   92, STRESS PERIOD    1

end timestep


start timestep kper="1" kstp="93" mode="normal"


 FMI READING BUDGET TERMS FOR KSTP 93 KPER 1
    93.0000        FLOW-JA-FACE                 
    93.0000          DATA-SPDIS NPF             
    93.0000            DATA-SAT NPF             
    93.0000                 WEL WEL-1           
    93.0000                 CHD CHD_0           

 FMI READING HEAD FOR KSTP 93 KPER 1

 CONCENTRATION WILL BE SAVED ON UNIT 1019 AT END OF TIME STEP   93, STRESS PERIOD    1

end timestep


start timestep kper="1" kstp="94" mode="normal"


 FMI READING BUDGET TERMS FOR KSTP 94 KPER 1
    94.0000        FLOW-JA-FACE                 
    94.0000          DATA-SPDIS NPF             
    94.0000            DATA-SAT NPF             
    94.0000                 WEL WEL-1           
    94.0000                 CHD CHD_0           

 FMI READING HEAD FOR KSTP 94 KPER 1

 CONCENTRATION WILL BE SAVED ON UNIT 1019 AT END OF TIME STEP   94, STRESS PERIOD    1

end timestep


start timestep kper="1" kstp="95" mode="normal"


 FMI READING BUDGET TERMS FOR KSTP 95 KPER 1
    95.0000        FLOW-JA-FACE                 
    95.0000          DATA-SPDIS NPF             
    95.0000            DATA-SAT NPF             
    95.0000                 WEL WEL-1           
    95.0000                 CHD CHD_0           

 FMI READING HEAD FOR KSTP 95 KPER 1

 CONCENTRATION WILL BE SAVED ON UNIT 1019 AT END OF TIME STEP   95, STRESS PERIOD    1

end timestep


start timestep kper="1" kstp="96" mode="normal"


 FMI READING BUDGET TERMS FOR KSTP 96 KPER 1
    96.0000        FLOW-JA-FACE                 
    96.0000          DATA-SPDIS NPF             
    96.0000            DATA-SAT NPF             
    96.0000                 WEL WEL-1           
    96.0000                 CHD CHD_0           

 FMI READING HEAD FOR KSTP 96 KPER 1

 CONCENTRATION WILL BE SAVED ON UNIT 1019 AT END OF TIME STEP   96, STRESS PERIOD    1

end timestep


start timestep kper="1" kstp="97" mode="normal"


 FMI READING BUDGET TERMS FOR KSTP 97 KPER 1
    97.0000        FLOW-JA-FACE                 
    97.0000          DATA-SPDIS NPF             
    97.0000            DATA-SAT NPF             
    97.0000                 WEL WEL-1           
    97.0000                 CHD CHD_0           

 FMI READING HEAD FOR KSTP 97 KPER 1

 CONCENTRATION WILL BE SAVED ON UNIT 1019 AT END OF TIME STEP   97, STRESS PERIOD    1

end timestep


start timestep kper="1" kstp="98" mode="normal"


 FMI READING BUDGET TERMS FOR KSTP 98 KPER 1
    98.0000        FLOW-JA-FACE                 
    98.0000          DATA-SPDIS NPF             
    98.0000            DATA-SAT NPF             
    98.0000                 WEL WEL-1           
    98.0000                 CHD CHD_0           

 FMI READING HEAD FOR KSTP 98 KPER 1

 CONCENTRATION WILL BE SAVED ON UNIT 1019 AT END OF TIME STEP   98, STRESS PERIOD    1

end timestep


start timestep kper="1" kstp="99" mode="normal"


 FMI READING BUDGET TERMS FOR KSTP 99 KPER 1
    99.0000        FLOW-JA-FACE                 
    99.0000          DATA-SPDIS NPF             
    99.0000            DATA-SAT NPF             
    99.0000                 WEL WEL-1           
    99.0000                 CHD CHD_0           

 FMI READING HEAD FOR KSTP 99 KPER 1

 CONCENTRATION WILL BE SAVED ON UNIT 1019 AT END OF TIME STEP   99, STRESS PERIOD    1

end timestep


start timestep kper="1" kstp="100" mode="normal"


 FMI READING BUDGET TERMS FOR KSTP 100 KPER 1
    100.000        FLOW-JA-FACE                 
    100.000          DATA-SPDIS NPF             
    100.000            DATA-SAT NPF             
    100.000                 WEL WEL-1           
    100.000                 CHD CHD_0           

 FMI READING HEAD FOR KSTP 100 KPER 1

 CONCENTRATION WILL BE SAVED ON UNIT 1019 AT END OF TIME STEP  100, STRESS PERIOD    1

end timestep


start timestep kper="1" kstp="101" mode="normal"


 FMI READING BUDGET TERMS FOR KSTP 101 KPER 1
    101.000        FLOW-JA-FACE                 
    101.000          DATA-SPDIS NPF             
    101.000            DATA-SAT NPF             
    101.000                 WEL WEL-1           
    101.000                 CHD CHD_0           

 FMI READING HEAD FOR KSTP 101 KPER 1

 CONCENTRATION WILL BE SAVED ON UNIT 1019 AT END OF TIME STEP  101, STRESS PERIOD    1

end timestep


start timestep kper="1" kstp="102" mode="normal"


 FMI READING BUDGET TERMS FOR KSTP 102 KPER 1
    102.000        FLOW-JA-FACE                 
    102.000          DATA-SPDIS NPF             
    102.000            DATA-SAT NPF             
    102.000                 WEL WEL-1           
    102.000                 CHD CHD_0           

 FMI READING HEAD FOR KSTP 102 KPER 1

 CONCENTRATION WILL BE SAVED ON UNIT 1019 AT END OF TIME STEP  102, STRESS PERIOD    1

end timestep


start timestep kper="1" kstp="103" mode="normal"


 FMI READING BUDGET TERMS FOR KSTP 103 KPER 1
    103.000        FLOW-JA-FACE                 
    103.000          DATA-SPDIS NPF             
    103.000            DATA-SAT NPF             
    103.000                 WEL WEL-1           
    103.000                 CHD CHD_0           

 FMI READING HEAD FOR KSTP 103 KPER 1

 CONCENTRATION WILL BE SAVED ON UNIT 1019 AT END OF TIME STEP  103, STRESS PERIOD    1

end timestep


start timestep kper="1" kstp="104" mode="normal"


 FMI READING BUDGET TERMS FOR KSTP 104 KPER 1
    104.000        FLOW-JA-FACE                 
    104.000          DATA-SPDIS NPF             
    104.000            DATA-SAT NPF             
    104.000                 WEL WEL-1           
    104.000                 CHD CHD_0           

 FMI READING HEAD FOR KSTP 104 KPER 1

 CONCENTRATION WILL BE SAVED ON UNIT 1019 AT END OF TIME STEP  104, STRESS PERIOD    1

end timestep


start timestep kper="1" kstp="105" mode="normal"


 FMI READING BUDGET TERMS FOR KSTP 105 KPER 1
    105.000        FLOW-JA-FACE                 
    105.000          DATA-SPDIS NPF             
    105.000            DATA-SAT NPF             
    105.000                 WEL WEL-1           
    105.000                 CHD CHD_0           

 FMI READING HEAD FOR KSTP 105 KPER 1

 CONCENTRATION WILL BE SAVED ON UNIT 1019 AT END OF TIME STEP  105, STRESS PERIOD    1

end timestep


start timestep kper="1" kstp="106" mode="normal"


 FMI READING BUDGET TERMS FOR KSTP 106 KPER 1
    106.000        FLOW-JA-FACE                 
    106.000          DATA-SPDIS NPF             
    106.000            DATA-SAT NPF             
    106.000                 WEL WEL-1           
    106.000                 CHD CHD_0           

 FMI READING HEAD FOR KSTP 106 KPER 1

 CONCENTRATION WILL BE SAVED ON UNIT 1019 AT END OF TIME STEP  106, STRESS PERIOD    1

end timestep


start timestep kper="1" kstp="107" mode="normal"


 FMI READING BUDGET TERMS FOR KSTP 107 KPER 1
    107.000        FLOW-JA-FACE                 
    107.000          DATA-SPDIS NPF             
    107.000            DATA-SAT NPF             
    107.000                 WEL WEL-1           
    107.000                 CHD CHD_0           

 FMI READING HEAD FOR KSTP 107 KPER 1

 CONCENTRATION WILL BE SAVED ON UNIT 1019 AT END OF TIME STEP  107, STRESS PERIOD    1

end timestep


start timestep kper="1" kstp="108" mode="normal"


 FMI READING BUDGET TERMS FOR KSTP 108 KPER 1
    108.000        FLOW-JA-FACE                 
    108.000          DATA-SPDIS NPF             
    108.000            DATA-SAT NPF             
    108.000                 WEL WEL-1           
    108.000                 CHD CHD_0           

 FMI READING HEAD FOR KSTP 108 KPER 1

 CONCENTRATION WILL BE SAVED ON UNIT 1019 AT END OF TIME STEP  108, STRESS PERIOD    1

end timestep


start timestep kper="1" kstp="109" mode="normal"


 FMI READING BUDGET TERMS FOR KSTP 109 KPER 1
    109.000        FLOW-JA-FACE                 
    109.000          DATA-SPDIS NPF             
    109.000            DATA-SAT NPF             
    109.000                 WEL WEL-1           
    109.000                 CHD CHD_0           

 FMI READING HEAD FOR KSTP 109 KPER 1

 CONCENTRATION WILL BE SAVED ON UNIT 1019 AT END OF TIME STEP  109, STRESS PERIOD    1

end timestep


start timestep kper="1" kstp="110" mode="normal"


 FMI READING BUDGET TERMS FOR KSTP 110 KPER 1
    110.000        FLOW-JA-FACE                 
    110.000          DATA-SPDIS NPF             
    110.000            DATA-SAT NPF             
    110.000                 WEL WEL-1           
    110.000                 CHD CHD_0           

 FMI READING HEAD FOR KSTP 110 KPER 1

 CONCENTRATION WILL BE SAVED ON UNIT 1019 AT END OF TIME STEP  110, STRESS PERIOD    1

end timestep


start timestep kper="1" kstp="111" mode="normal"


 FMI READING BUDGET TERMS FOR KSTP 111 KPER 1
    111.000        FLOW-JA-FACE                 
    111.000          DATA-SPDIS NPF             
    111.000            DATA-SAT NPF             
    111.000                 WEL WEL-1           
    111.000                 CHD CHD_0           

 FMI READING HEAD FOR KSTP 111 KPER 1

 CONCENTRATION WILL BE SAVED ON UNIT 1019 AT END OF TIME STEP  111, STRESS PERIOD    1

end timestep


start timestep kper="1" kstp="112" mode="normal"


 FMI READING BUDGET TERMS FOR KSTP 112 KPER 1
    112.000        FLOW-JA-FACE                 
    112.000          DATA-SPDIS NPF             
    112.000            DATA-SAT NPF             
    112.000                 WEL WEL-1           
    112.000                 CHD CHD_0           

 FMI READING HEAD FOR KSTP 112 KPER 1

 CONCENTRATION WILL BE SAVED ON UNIT 1019 AT END OF TIME STEP  112, STRESS PERIOD    1

end timestep


start timestep kper="1" kstp="113" mode="normal"


 FMI READING BUDGET TERMS FOR KSTP 113 KPER 1
    113.000        FLOW-JA-FACE                 
    113.000          DATA-SPDIS NPF             
    113.000            DATA-SAT NPF             
    113.000                 WEL WEL-1           
    113.000                 CHD CHD_0           

 FMI READING HEAD FOR KSTP 113 KPER 1

 CONCENTRATION WILL BE SAVED ON UNIT 1019 AT END OF TIME STEP  113, STRESS PERIOD    1

end timestep


start timestep kper="1" kstp="114" mode="normal"


 FMI READING BUDGET TERMS FOR KSTP 114 KPER 1
    114.000        FLOW-JA-FACE                 
    114.000          DATA-SPDIS NPF             
    114.000            DATA-SAT NPF             
    114.000                 WEL WEL-1           
    114.000                 CHD CHD_0           

 FMI READING HEAD FOR KSTP 114 KPER 1

 CONCENTRATION WILL BE SAVED ON UNIT 1019 AT END OF TIME STEP  114, STRESS PERIOD    1

end timestep


start timestep kper="1" kstp="115" mode="normal"


 FMI READING BUDGET TERMS FOR KSTP 115 KPER 1
    115.000        FLOW-JA-FACE                 
    115.000          DATA-SPDIS NPF             
    115.000            DATA-SAT NPF             
    115.000                 WEL WEL-1           
    115.000                 CHD CHD_0           

 FMI READING HEAD FOR KSTP 115 KPER 1

 CONCENTRATION WILL BE SAVED ON UNIT 1019 AT END OF TIME STEP  115, STRESS PERIOD    1

end timestep


start timestep kper="1" kstp="116" mode="normal"


 FMI READING BUDGET TERMS FOR KSTP 116 KPER 1
    116.000        FLOW-JA-FACE                 
    116.000          DATA-SPDIS NPF             
    116.000            DATA-SAT NPF             
    116.000                 WEL WEL-1           
    116.000                 CHD CHD_0           

 FMI READING HEAD FOR KSTP 116 KPER 1

 CONCENTRATION WILL BE SAVED ON UNIT 1019 AT END OF TIME STEP  116, STRESS PERIOD    1

end timestep


start timestep kper="1" kstp="117" mode="normal"


 FMI READING BUDGET TERMS FOR KSTP 117 KPER 1
    117.000        FLOW-JA-FACE                 
    117.000          DATA-SPDIS NPF             
    117.000            DATA-SAT NPF             
    117.000                 WEL WEL-1           
    117.000                 CHD CHD_0           

 FMI READING HEAD FOR KSTP 117 KPER 1

 CONCENTRATION WILL BE SAVED ON UNIT 1019 AT END OF TIME STEP  117, STRESS PERIOD    1

end timestep


start timestep kper="1" kstp="118" mode="normal"


 FMI READING BUDGET TERMS FOR KSTP 118 KPER 1
    118.000        FLOW-JA-FACE                 
    118.000          DATA-SPDIS NPF             
    118.000            DATA-SAT NPF             
    118.000                 WEL WEL-1           
    118.000                 CHD CHD_0           

 FMI READING HEAD FOR KSTP 118 KPER 1

 CONCENTRATION WILL BE SAVED ON UNIT 1019 AT END OF TIME STEP  118, STRESS PERIOD    1

end timestep


start timestep kper="1" kstp="119" mode="normal"


 FMI READING BUDGET TERMS FOR KSTP 119 KPER 1
    119.000        FLOW-JA-FACE                 
    119.000          DATA-SPDIS NPF             
    119.000            DATA-SAT NPF             
    119.000                 WEL WEL-1           
    119.000                 CHD CHD_0           

 FMI READING HEAD FOR KSTP 119 KPER 1

 CONCENTRATION WILL BE SAVED ON UNIT 1019 AT END OF TIME STEP  119, STRESS PERIOD    1

end timestep


start timestep kper="1" kstp="120" mode="normal"


 FMI READING BUDGET TERMS FOR KSTP 120 KPER 1
    120.000        FLOW-JA-FACE                 
    120.000          DATA-SPDIS NPF             
    120.000            DATA-SAT NPF             
    120.000                 WEL WEL-1           
    120.000                 CHD CHD_0           

 FMI READING HEAD FOR KSTP 120 KPER 1

 CONCENTRATION WILL BE SAVED ON UNIT 1019 AT END OF TIME STEP  120, STRESS PERIOD    1

end timestep


start timestep kper="1" kstp="121" mode="normal"


 FMI READING BUDGET TERMS FOR KSTP 121 KPER 1
    121.000        FLOW-JA-FACE                 
    121.000          DATA-SPDIS NPF             
    121.000            DATA-SAT NPF             
    121.000                 WEL WEL-1           
    121.000                 CHD CHD_0           

 FMI READING HEAD FOR KSTP 121 KPER 1

 CONCENTRATION WILL BE SAVED ON UNIT 1019 AT END OF TIME STEP  121, STRESS PERIOD    1

end timestep


start timestep kper="1" kstp="122" mode="normal"


 FMI READING BUDGET TERMS FOR KSTP 122 KPER 1
    122.000        FLOW-JA-FACE                 
    122.000          DATA-SPDIS NPF             
    122.000            DATA-SAT NPF             
    122.000                 WEL WEL-1           
    122.000                 CHD CHD_0           

 FMI READING HEAD FOR KSTP 122 KPER 1

 CONCENTRATION WILL BE SAVED ON UNIT 1019 AT END OF TIME STEP  122, STRESS PERIOD    1

end timestep


start timestep kper="1" kstp="123" mode="normal"


 FMI READING BUDGET TERMS FOR KSTP 123 KPER 1
    123.000        FLOW-JA-FACE                 
    123.000          DATA-SPDIS NPF             
    123.000            DATA-SAT NPF             
    123.000                 WEL WEL-1           
    123.000                 CHD CHD_0           

 FMI READING HEAD FOR KSTP 123 KPER 1

 CONCENTRATION WILL BE SAVED ON UNIT 1019 AT END OF TIME STEP  123, STRESS PERIOD    1

end timestep


start timestep kper="1" kstp="124" mode="normal"


 FMI READING BUDGET TERMS FOR KSTP 124 KPER 1
    124.000        FLOW-JA-FACE                 
    124.000          DATA-SPDIS NPF             
    124.000            DATA-SAT NPF             
    124.000                 WEL WEL-1           
    124.000                 CHD CHD_0           

 FMI READING HEAD FOR KSTP 124 KPER 1

 CONCENTRATION WILL BE SAVED ON UNIT 1019 AT END OF TIME STEP  124, STRESS PERIOD    1

end timestep


start timestep kper="1" kstp="125" mode="normal"


 FMI READING BUDGET TERMS FOR KSTP 125 KPER 1
    125.000        FLOW-JA-FACE                 
    125.000          DATA-SPDIS NPF             
    125.000            DATA-SAT NPF             
    125.000                 WEL WEL-1           
    125.000                 CHD CHD_0           

 FMI READING HEAD FOR KSTP 125 KPER 1

 CONCENTRATION WILL BE SAVED ON UNIT 1019 AT END OF TIME STEP  125, STRESS PERIOD    1

end timestep


start timestep kper="1" kstp="126" mode="normal"


 FMI READING BUDGET TERMS FOR KSTP 126 KPER 1
    126.000        FLOW-JA-FACE                 
    126.000          DATA-SPDIS NPF             
    126.000            DATA-SAT NPF             
    126.000                 WEL WEL-1           
    126.000                 CHD CHD_0           

 FMI READING HEAD FOR KSTP 126 KPER 1

 CONCENTRATION WILL BE SAVED ON UNIT 1019 AT END OF TIME STEP  126, STRESS PERIOD    1

end timestep


start timestep kper="1" kstp="127" mode="normal"


 FMI READING BUDGET TERMS FOR KSTP 127 KPER 1
    127.000        FLOW-JA-FACE                 
    127.000          DATA-SPDIS NPF             
    127.000            DATA-SAT NPF             
    127.000                 WEL WEL-1           
    127.000                 CHD CHD_0           

 FMI READING HEAD FOR KSTP 127 KPER 1

 CONCENTRATION WILL BE SAVED ON UNIT 1019 AT END OF TIME STEP  127, STRESS PERIOD    1

end timestep


start timestep kper="1" kstp="128" mode="normal"


 FMI READING BUDGET TERMS FOR KSTP 128 KPER 1
    128.000        FLOW-JA-FACE                 
    128.000          DATA-SPDIS NPF             
    128.000            DATA-SAT NPF             
    128.000                 WEL WEL-1           
    128.000                 CHD CHD_0           

 FMI READING HEAD FOR KSTP 128 KPER 1

 CONCENTRATION WILL BE SAVED ON UNIT 1019 AT END OF TIME STEP  128, STRESS PERIOD    1

end timestep


start timestep kper="1" kstp="129" mode="normal"


 FMI READING BUDGET TERMS FOR KSTP 129 KPER 1
    129.000        FLOW-JA-FACE                 
    129.000          DATA-SPDIS NPF             
    129.000            DATA-SAT NPF             
    129.000                 WEL WEL-1           
    129.000                 CHD CHD_0           

 FMI READING HEAD FOR KSTP 129 KPER 1

 CONCENTRATION WILL BE SAVED ON UNIT 1019 AT END OF TIME STEP  129, STRESS PERIOD    1

end timestep


start timestep kper="1" kstp="130" mode="normal"


 FMI READING BUDGET TERMS FOR KSTP 130 KPER 1
    130.000        FLOW-JA-FACE                 
    130.000          DATA-SPDIS NPF             
    130.000            DATA-SAT NPF             
    130.000                 WEL WEL-1           
    130.000                 CHD CHD_0           

 FMI READING HEAD FOR KSTP 130 KPER 1

 CONCENTRATION WILL BE SAVED ON UNIT 1019 AT END OF TIME STEP  130, STRESS PERIOD    1

end timestep


start timestep kper="1" kstp="131" mode="normal"


 FMI READING BUDGET TERMS FOR KSTP 131 KPER 1
    131.000        FLOW-JA-FACE                 
    131.000          DATA-SPDIS NPF             
    131.000            DATA-SAT NPF             
    131.000                 WEL WEL-1           
    131.000                 CHD CHD_0           

 FMI READING HEAD FOR KSTP 131 KPER 1

 CONCENTRATION WILL BE SAVED ON UNIT 1019 AT END OF TIME STEP  131, STRESS PERIOD    1

end timestep


start timestep kper="1" kstp="132" mode="normal"


 FMI READING BUDGET TERMS FOR KSTP 132 KPER 1
    132.000        FLOW-JA-FACE                 
    132.000          DATA-SPDIS NPF             
    132.000            DATA-SAT NPF             
    132.000                 WEL WEL-1           
    132.000                 CHD CHD_0           

 FMI READING HEAD FOR KSTP 132 KPER 1

 CONCENTRATION WILL BE SAVED ON UNIT 1019 AT END OF TIME STEP  132, STRESS PERIOD    1

end timestep


start timestep kper="1" kstp="133" mode="normal"


 FMI READING BUDGET TERMS FOR KSTP 133 KPER 1
    133.000        FLOW-JA-FACE                 
    133.000          DATA-SPDIS NPF             
    133.000            DATA-SAT NPF             
    133.000                 WEL WEL-1           
    133.000                 CHD CHD_0           

 FMI READING HEAD FOR KSTP 133 KPER 1

 CONCENTRATION WILL BE SAVED ON UNIT 1019 AT END OF TIME STEP  133, STRESS PERIOD    1

end timestep


start timestep kper="1" kstp="134" mode="normal"


 FMI READING BUDGET TERMS FOR KSTP 134 KPER 1
    134.000        FLOW-JA-FACE                 
    134.000          DATA-SPDIS NPF             
    134.000            DATA-SAT NPF             
    134.000                 WEL WEL-1           
    134.000                 CHD CHD_0           

 FMI READING HEAD FOR KSTP 134 KPER 1

 CONCENTRATION WILL BE SAVED ON UNIT 1019 AT END OF TIME STEP  134, STRESS PERIOD    1

end timestep


start timestep kper="1" kstp="135" mode="normal"


 FMI READING BUDGET TERMS FOR KSTP 135 KPER 1
    135.000        FLOW-JA-FACE                 
    135.000          DATA-SPDIS NPF             
    135.000            DATA-SAT NPF             
    135.000                 WEL WEL-1           
    135.000                 CHD CHD_0           

 FMI READING HEAD FOR KSTP 135 KPER 1

 CONCENTRATION WILL BE SAVED ON UNIT 1019 AT END OF TIME STEP  135, STRESS PERIOD    1

end timestep


start timestep kper="1" kstp="136" mode="normal"


 FMI READING BUDGET TERMS FOR KSTP 136 KPER 1
    136.000        FLOW-JA-FACE                 
    136.000          DATA-SPDIS NPF             
    136.000            DATA-SAT NPF             
    136.000                 WEL WEL-1           
    136.000                 CHD CHD_0           

 FMI READING HEAD FOR KSTP 136 KPER 1

 CONCENTRATION WILL BE SAVED ON UNIT 1019 AT END OF TIME STEP  136, STRESS PERIOD    1

end timestep


start timestep kper="1" kstp="137" mode="normal"


 FMI READING BUDGET TERMS FOR KSTP 137 KPER 1
    137.000        FLOW-JA-FACE                 
    137.000          DATA-SPDIS NPF             
    137.000            DATA-SAT NPF             
    137.000                 WEL WEL-1           
    137.000                 CHD CHD_0           

 FMI READING HEAD FOR KSTP 137 KPER 1

 CONCENTRATION WILL BE SAVED ON UNIT 1019 AT END OF TIME STEP  137, STRESS PERIOD    1

end timestep


start timestep kper="1" kstp="138" mode="normal"


 FMI READING BUDGET TERMS FOR KSTP 138 KPER 1
    138.000        FLOW-JA-FACE                 
    138.000          DATA-SPDIS NPF             
    138.000            DATA-SAT NPF             
    138.000                 WEL WEL-1           
    138.000                 CHD CHD_0           

 FMI READING HEAD FOR KSTP 138 KPER 1

 CONCENTRATION WILL BE SAVED ON UNIT 1019 AT END OF TIME STEP  138, STRESS PERIOD    1

end timestep


start timestep kper="1" kstp="139" mode="normal"


 FMI READING BUDGET TERMS FOR KSTP 139 KPER 1
    139.000        FLOW-JA-FACE                 
    139.000          DATA-SPDIS NPF             
    139.000            DATA-SAT NPF             
    139.000                 WEL WEL-1           
    139.000                 CHD CHD_0           

 FMI READING HEAD FOR KSTP 139 KPER 1

 CONCENTRATION WILL BE SAVED ON UNIT 1019 AT END OF TIME STEP  139, STRESS PERIOD    1

end timestep


start timestep kper="1" kstp="140" mode="normal"


 FMI READING BUDGET TERMS FOR KSTP 140 KPER 1
    140.000        FLOW-JA-FACE                 
    140.000          DATA-SPDIS NPF             
    140.000            DATA-SAT NPF             
    140.000                 WEL WEL-1           
    140.000                 CHD CHD_0           

 FMI READING HEAD FOR KSTP 140 KPER 1

 CONCENTRATION WILL BE SAVED ON UNIT 1019 AT END OF TIME STEP  140, STRESS PERIOD    1

end timestep


start timestep kper="1" kstp="141" mode="normal"


 FMI READING BUDGET TERMS FOR KSTP 141 KPER 1
    141.000        FLOW-JA-FACE                 
    141.000          DATA-SPDIS NPF             
    141.000            DATA-SAT NPF             
    141.000                 WEL WEL-1           
    141.000                 CHD CHD_0           

 FMI READING HEAD FOR KSTP 141 KPER 1

 CONCENTRATION WILL BE SAVED ON UNIT 1019 AT END OF TIME STEP  141, STRESS PERIOD    1

end timestep


start timestep kper="1" kstp="142" mode="normal"


 FMI READING BUDGET TERMS FOR KSTP 142 KPER 1
    142.000        FLOW-JA-FACE                 
    142.000          DATA-SPDIS NPF             
    142.000            DATA-SAT NPF             
    142.000                 WEL WEL-1           
    142.000                 CHD CHD_0           

 FMI READING HEAD FOR KSTP 142 KPER 1

 CONCENTRATION WILL BE SAVED ON UNIT 1019 AT END OF TIME STEP  142, STRESS PERIOD    1

end timestep


start timestep kper="1" kstp="143" mode="normal"


 FMI READING BUDGET TERMS FOR KSTP 143 KPER 1
    143.000        FLOW-JA-FACE                 
    143.000          DATA-SPDIS NPF             
    143.000            DATA-SAT NPF             
    143.000                 WEL WEL-1           
    143.000                 CHD CHD_0           

 FMI READING HEAD FOR KSTP 143 KPER 1

 CONCENTRATION WILL BE SAVED ON UNIT 1019 AT END OF TIME STEP  143, STRESS PERIOD    1

end timestep


start timestep kper="1" kstp="144" mode="normal"


 FMI READING BUDGET TERMS FOR KSTP 144 KPER 1
    144.000        FLOW-JA-FACE                 
    144.000          DATA-SPDIS NPF             
    144.000            DATA-SAT NPF             
    144.000                 WEL WEL-1           
    144.000                 CHD CHD_0           

 FMI READING HEAD FOR KSTP 144 KPER 1

 CONCENTRATION WILL BE SAVED ON UNIT 1019 AT END OF TIME STEP  144, STRESS PERIOD    1

end timestep


start timestep kper="1" kstp="145" mode="normal"


 FMI READING BUDGET TERMS FOR KSTP 145 KPER 1
    145.000        FLOW-JA-FACE                 
    145.000          DATA-SPDIS NPF             
    145.000            DATA-SAT NPF             
    145.000                 WEL WEL-1           
    145.000                 CHD CHD_0           

 FMI READING HEAD FOR KSTP 145 KPER 1

 CONCENTRATION WILL BE SAVED ON UNIT 1019 AT END OF TIME STEP  145, STRESS PERIOD    1

end timestep


start timestep kper="1" kstp="146" mode="normal"


 FMI READING BUDGET TERMS FOR KSTP 146 KPER 1
    146.000        FLOW-JA-FACE                 
    146.000          DATA-SPDIS NPF             
    146.000            DATA-SAT NPF             
    146.000                 WEL WEL-1           
    146.000                 CHD CHD_0           

 FMI READING HEAD FOR KSTP 146 KPER 1

 CONCENTRATION WILL BE SAVED ON UNIT 1019 AT END OF TIME STEP  146, STRESS PERIOD    1

end timestep


start timestep kper="1" kstp="147" mode="normal"


 FMI READING BUDGET TERMS FOR KSTP 147 KPER 1
    147.000        FLOW-JA-FACE                 
    147.000          DATA-SPDIS NPF             
    147.000            DATA-SAT NPF             
    147.000                 WEL WEL-1           
    147.000                 CHD CHD_0           

 FMI READING HEAD FOR KSTP 147 KPER 1

 CONCENTRATION WILL BE SAVED ON UNIT 1019 AT END OF TIME STEP  147, STRESS PERIOD    1

end timestep


start timestep kper="1" kstp="148" mode="normal"


 FMI READING BUDGET TERMS FOR KSTP 148 KPER 1
    148.000        FLOW-JA-FACE                 
    148.000          DATA-SPDIS NPF             
    148.000            DATA-SAT NPF             
[...]

 CONCENTRATION WILL BE SAVED ON UNIT 1019 AT END OF TIME STEP 1310, STRESS PERIOD    2

end timestep


start timestep kper="2" kstp="1311" mode="normal"


 FMI READING BUDGET TERMS FOR KSTP 1311 KPER 2
    1471.00        FLOW-JA-FACE                 
    1471.00          DATA-SPDIS NPF             
    1471.00            DATA-SAT NPF             
    1471.00                 WEL WEL-1           
    1471.00                 CHD CHD_0           

 FMI READING HEAD FOR KSTP 1311 KPER 2

 CONCENTRATION WILL BE SAVED ON UNIT 1019 AT END OF TIME STEP 1311, STRESS PERIOD    2

end timestep


start timestep kper="2" kstp="1312" mode="normal"


 FMI READING BUDGET TERMS FOR KSTP 1312 KPER 2
    1472.00        FLOW-JA-FACE                 
    1472.00          DATA-SPDIS NPF             
    1472.00            DATA-SAT NPF             
    1472.00                 WEL WEL-1           
    1472.00                 CHD CHD_0           

 FMI READING HEAD FOR KSTP 1312 KPER 2

 CONCENTRATION WILL BE SAVED ON UNIT 1019 AT END OF TIME STEP 1312, STRESS PERIOD    2

end timestep


start timestep kper="2" kstp="1313" mode="normal"


 FMI READING BUDGET TERMS FOR KSTP 1313 KPER 2
    1473.00        FLOW-JA-FACE                 
    1473.00          DATA-SPDIS NPF             
    1473.00            DATA-SAT NPF             
    1473.00                 WEL WEL-1           
    1473.00                 CHD CHD_0           

 FMI READING HEAD FOR KSTP 1313 KPER 2

 CONCENTRATION WILL BE SAVED ON UNIT 1019 AT END OF TIME STEP 1313, STRESS PERIOD    2

end timestep


start timestep kper="2" kstp="1314" mode="normal"


 FMI READING BUDGET TERMS FOR KSTP 1314 KPER 2
    1474.00        FLOW-JA-FACE                 
    1474.00          DATA-SPDIS NPF             
    1474.00            DATA-SAT NPF             
    1474.00                 WEL WEL-1           
    1474.00                 CHD CHD_0           

 FMI READING HEAD FOR KSTP 1314 KPER 2

 CONCENTRATION WILL BE SAVED ON UNIT 1019 AT END OF TIME STEP 1314, STRESS PERIOD    2

end timestep


start timestep kper="2" kstp="1315" mode="normal"


 FMI READING BUDGET TERMS FOR KSTP 1315 KPER 2
    1475.00        FLOW-JA-FACE                 
    1475.00          DATA-SPDIS NPF             
    1475.00            DATA-SAT NPF             
    1475.00                 WEL WEL-1           
    1475.00                 CHD CHD_0           

 FMI READING HEAD FOR KSTP 1315 KPER 2

 CONCENTRATION WILL BE SAVED ON UNIT 1019 AT END OF TIME STEP 1315, STRESS PERIOD    2

end timestep


start timestep kper="2" kstp="1316" mode="normal"


 FMI READING BUDGET TERMS FOR KSTP 1316 KPER 2
    1476.00        FLOW-JA-FACE                 
    1476.00          DATA-SPDIS NPF             
    1476.00            DATA-SAT NPF             
    1476.00                 WEL WEL-1           
    1476.00                 CHD CHD_0           

 FMI READING HEAD FOR KSTP 1316 KPER 2

 CONCENTRATION WILL BE SAVED ON UNIT 1019 AT END OF TIME STEP 1316, STRESS PERIOD    2

end timestep


start timestep kper="2" kstp="1317" mode="normal"


 FMI READING BUDGET TERMS FOR KSTP 1317 KPER 2
    1477.00        FLOW-JA-FACE                 
    1477.00          DATA-SPDIS NPF             
    1477.00            DATA-SAT NPF             
    1477.00                 WEL WEL-1           
    1477.00                 CHD CHD_0           

 FMI READING HEAD FOR KSTP 1317 KPER 2

 CONCENTRATION WILL BE SAVED ON UNIT 1019 AT END OF TIME STEP 1317, STRESS PERIOD    2

end timestep


start timestep kper="2" kstp="1318" mode="normal"


 FMI READING BUDGET TERMS FOR KSTP 1318 KPER 2
    1478.00        FLOW-JA-FACE                 
    1478.00          DATA-SPDIS NPF             
    1478.00            DATA-SAT NPF             
    1478.00                 WEL WEL-1           
    1478.00                 CHD CHD_0           

 FMI READING HEAD FOR KSTP 1318 KPER 2

 CONCENTRATION WILL BE SAVED ON UNIT 1019 AT END OF TIME STEP 1318, STRESS PERIOD    2

end timestep


start timestep kper="2" kstp="1319" mode="normal"


 FMI READING BUDGET TERMS FOR KSTP 1319 KPER 2
    1479.00        FLOW-JA-FACE                 
    1479.00          DATA-SPDIS NPF             
    1479.00            DATA-SAT NPF             
    1479.00                 WEL WEL-1           
    1479.00                 CHD CHD_0           

 FMI READING HEAD FOR KSTP 1319 KPER 2

 CONCENTRATION WILL BE SAVED ON UNIT 1019 AT END OF TIME STEP 1319, STRESS PERIOD    2

end timestep


start timestep kper="2" kstp="1320" mode="normal"


 FMI READING BUDGET TERMS FOR KSTP 1320 KPER 2
    1480.00        FLOW-JA-FACE                 
    1480.00          DATA-SPDIS NPF             
    1480.00            DATA-SAT NPF             
    1480.00                 WEL WEL-1           
    1480.00                 CHD CHD_0           

 FMI READING HEAD FOR KSTP 1320 KPER 2

 CONCENTRATION WILL BE SAVED ON UNIT 1019 AT END OF TIME STEP 1320, STRESS PERIOD    2

end timestep


start timestep kper="2" kstp="1321" mode="normal"


 FMI READING BUDGET TERMS FOR KSTP 1321 KPER 2
    1481.00        FLOW-JA-FACE                 
    1481.00          DATA-SPDIS NPF             
    1481.00            DATA-SAT NPF             
    1481.00                 WEL WEL-1           
    1481.00                 CHD CHD_0           

 FMI READING HEAD FOR KSTP 1321 KPER 2

 CONCENTRATION WILL BE SAVED ON UNIT 1019 AT END OF TIME STEP 1321, STRESS PERIOD    2

end timestep


start timestep kper="2" kstp="1322" mode="normal"


 FMI READING BUDGET TERMS FOR KSTP 1322 KPER 2
    1482.00        FLOW-JA-FACE                 
    1482.00          DATA-SPDIS NPF             
    1482.00            DATA-SAT NPF             
    1482.00                 WEL WEL-1           
    1482.00                 CHD CHD_0           

 FMI READING HEAD FOR KSTP 1322 KPER 2

 CONCENTRATION WILL BE SAVED ON UNIT 1019 AT END OF TIME STEP 1322, STRESS PERIOD    2

end timestep


start timestep kper="2" kstp="1323" mode="normal"


 FMI READING BUDGET TERMS FOR KSTP 1323 KPER 2
    1483.00        FLOW-JA-FACE                 
    1483.00          DATA-SPDIS NPF             
    1483.00            DATA-SAT NPF             
    1483.00                 WEL WEL-1           
    1483.00                 CHD CHD_0           

 FMI READING HEAD FOR KSTP 1323 KPER 2

 CONCENTRATION WILL BE SAVED ON UNIT 1019 AT END OF TIME STEP 1323, STRESS PERIOD    2

end timestep


start timestep kper="2" kstp="1324" mode="normal"


 FMI READING BUDGET TERMS FOR KSTP 1324 KPER 2
    1484.00        FLOW-JA-FACE                 
    1484.00          DATA-SPDIS NPF             
    1484.00            DATA-SAT NPF             
    1484.00                 WEL WEL-1           
    1484.00                 CHD CHD_0           

 FMI READING HEAD FOR KSTP 1324 KPER 2

 CONCENTRATION WILL BE SAVED ON UNIT 1019 AT END OF TIME STEP 1324, STRESS PERIOD    2

end timestep


start timestep kper="2" kstp="1325" mode="normal"


 FMI READING BUDGET TERMS FOR KSTP 1325 KPER 2
    1485.00        FLOW-JA-FACE                 
    1485.00          DATA-SPDIS NPF             
    1485.00            DATA-SAT NPF             
    1485.00                 WEL WEL-1           
    1485.00                 CHD CHD_0           

 FMI READING HEAD FOR KSTP 1325 KPER 2

 CONCENTRATION WILL BE SAVED ON UNIT 1019 AT END OF TIME STEP 1325, STRESS PERIOD    2

end timestep


start timestep kper="2" kstp="1326" mode="normal"


 FMI READING BUDGET TERMS FOR KSTP 1326 KPER 2
    1486.00        FLOW-JA-FACE                 
    1486.00          DATA-SPDIS NPF             
    1486.00            DATA-SAT NPF             
    1486.00                 WEL WEL-1           
    1486.00                 CHD CHD_0           

 FMI READING HEAD FOR KSTP 1326 KPER 2

 CONCENTRATION WILL BE SAVED ON UNIT 1019 AT END OF TIME STEP 1326, STRESS PERIOD    2

end timestep


start timestep kper="2" kstp="1327" mode="normal"


 FMI READING BUDGET TERMS FOR KSTP 1327 KPER 2
    1487.00        FLOW-JA-FACE                 
    1487.00          DATA-SPDIS NPF             
    1487.00            DATA-SAT NPF             
    1487.00                 WEL WEL-1           
    1487.00                 CHD CHD_0           

 FMI READING HEAD FOR KSTP 1327 KPER 2

 CONCENTRATION WILL BE SAVED ON UNIT 1019 AT END OF TIME STEP 1327, STRESS PERIOD    2

end timestep


start timestep kper="2" kstp="1328" mode="normal"


 FMI READING BUDGET TERMS FOR KSTP 1328 KPER 2
    1488.00        FLOW-JA-FACE                 
    1488.00          DATA-SPDIS NPF             
    1488.00            DATA-SAT NPF             
    1488.00                 WEL WEL-1           
    1488.00                 CHD CHD_0           

 FMI READING HEAD FOR KSTP 1328 KPER 2

 CONCENTRATION WILL BE SAVED ON UNIT 1019 AT END OF TIME STEP 1328, STRESS PERIOD    2

end timestep


start timestep kper="2" kstp="1329" mode="normal"


 FMI READING BUDGET TERMS FOR KSTP 1329 KPER 2
    1489.00        FLOW-JA-FACE                 
    1489.00          DATA-SPDIS NPF             
    1489.00            DATA-SAT NPF             
    1489.00                 WEL WEL-1           
    1489.00                 CHD CHD_0           

 FMI READING HEAD FOR KSTP 1329 KPER 2

 CONCENTRATION WILL BE SAVED ON UNIT 1019 AT END OF TIME STEP 1329, STRESS PERIOD    2

end timestep


start timestep kper="2" kstp="1330" mode="normal"


 FMI READING BUDGET TERMS FOR KSTP 1330 KPER 2
    1490.00        FLOW-JA-FACE                 
    1490.00          DATA-SPDIS NPF             
    1490.00            DATA-SAT NPF             
    1490.00                 WEL WEL-1           
    1490.00                 CHD CHD_0           

 FMI READING HEAD FOR KSTP 1330 KPER 2

 CONCENTRATION WILL BE SAVED ON UNIT 1019 AT END OF TIME STEP 1330, STRESS PERIOD    2

end timestep


start timestep kper="2" kstp="1331" mode="normal"


 FMI READING BUDGET TERMS FOR KSTP 1331 KPER 2
    1491.00        FLOW-JA-FACE                 
    1491.00          DATA-SPDIS NPF             
    1491.00            DATA-SAT NPF             
    1491.00                 WEL WEL-1           
    1491.00                 CHD CHD_0           

 FMI READING HEAD FOR KSTP 1331 KPER 2

 CONCENTRATION WILL BE SAVED ON UNIT 1019 AT END OF TIME STEP 1331, STRESS PERIOD    2

end timestep


start timestep kper="2" kstp="1332" mode="normal"


 FMI READING BUDGET TERMS FOR KSTP 1332 KPER 2
    1492.00        FLOW-JA-FACE                 
    1492.00          DATA-SPDIS NPF             
    1492.00            DATA-SAT NPF             
    1492.00                 WEL WEL-1           
    1492.00                 CHD CHD_0           

 FMI READING HEAD FOR KSTP 1332 KPER 2

 CONCENTRATION WILL BE SAVED ON UNIT 1019 AT END OF TIME STEP 1332, STRESS PERIOD    2

end timestep


start timestep kper="2" kstp="1333" mode="normal"


 FMI READING BUDGET TERMS FOR KSTP 1333 KPER 2
    1493.00        FLOW-JA-FACE                 
    1493.00          DATA-SPDIS NPF             
    1493.00            DATA-SAT NPF             
    1493.00                 WEL WEL-1           
    1493.00                 CHD CHD_0           

 FMI READING HEAD FOR KSTP 1333 KPER 2

 CONCENTRATION WILL BE SAVED ON UNIT 1019 AT END OF TIME STEP 1333, STRESS PERIOD    2

end timestep


start timestep kper="2" kstp="1334" mode="normal"


 FMI READING BUDGET TERMS FOR KSTP 1334 KPER 2
    1494.00        FLOW-JA-FACE                 
    1494.00          DATA-SPDIS NPF             
    1494.00            DATA-SAT NPF             
    1494.00                 WEL WEL-1           
    1494.00                 CHD CHD_0           

 FMI READING HEAD FOR KSTP 1334 KPER 2

 CONCENTRATION WILL BE SAVED ON UNIT 1019 AT END OF TIME STEP 1334, STRESS PERIOD    2

end timestep


start timestep kper="2" kstp="1335" mode="normal"


 FMI READING BUDGET TERMS FOR KSTP 1335 KPER 2
    1495.00        FLOW-JA-FACE                 
    1495.00          DATA-SPDIS NPF             
    1495.00            DATA-SAT NPF             
    1495.00                 WEL WEL-1           
    1495.00                 CHD CHD_0           

 FMI READING HEAD FOR KSTP 1335 KPER 2

 CONCENTRATION WILL BE SAVED ON UNIT 1019 AT END OF TIME STEP 1335, STRESS PERIOD    2

end timestep


start timestep kper="2" kstp="1336" mode="normal"


 FMI READING BUDGET TERMS FOR KSTP 1336 KPER 2
    1496.00        FLOW-JA-FACE                 
    1496.00          DATA-SPDIS NPF             
    1496.00            DATA-SAT NPF             
    1496.00                 WEL WEL-1           
    1496.00                 CHD CHD_0           

 FMI READING HEAD FOR KSTP 1336 KPER 2

 CONCENTRATION WILL BE SAVED ON UNIT 1019 AT END OF TIME STEP 1336, STRESS PERIOD    2

end timestep


start timestep kper="2" kstp="1337" mode="normal"


 FMI READING BUDGET TERMS FOR KSTP 1337 KPER 2
    1497.00        FLOW-JA-FACE                 
    1497.00          DATA-SPDIS NPF             
    1497.00            DATA-SAT NPF             
    1497.00                 WEL WEL-1           
    1497.00                 CHD CHD_0           

 FMI READING HEAD FOR KSTP 1337 KPER 2

 CONCENTRATION WILL BE SAVED ON UNIT 1019 AT END OF TIME STEP 1337, STRESS PERIOD    2

end timestep


start timestep kper="2" kstp="1338" mode="normal"


 FMI READING BUDGET TERMS FOR KSTP 1338 KPER 2
    1498.00        FLOW-JA-FACE                 
    1498.00          DATA-SPDIS NPF             
    1498.00            DATA-SAT NPF             
    1498.00                 WEL WEL-1           
    1498.00                 CHD CHD_0           

 FMI READING HEAD FOR KSTP 1338 KPER 2

 CONCENTRATION WILL BE SAVED ON UNIT 1019 AT END OF TIME STEP 1338, STRESS PERIOD    2

end timestep


start timestep kper="2" kstp="1339" mode="normal"


 FMI READING BUDGET TERMS FOR KSTP 1339 KPER 2
    1499.00        FLOW-JA-FACE                 
    1499.00          DATA-SPDIS NPF             
    1499.00            DATA-SAT NPF             
    1499.00                 WEL WEL-1           
    1499.00                 CHD CHD_0           

 FMI READING HEAD FOR KSTP 1339 KPER 2

 CONCENTRATION WILL BE SAVED ON UNIT 1019 AT END OF TIME STEP 1339, STRESS PERIOD    2

end timestep


start timestep kper="2" kstp="1340" mode="normal"


 FMI READING BUDGET TERMS FOR KSTP 1340 KPER 2
    1500.00        FLOW-JA-FACE                 
    1500.00          DATA-SPDIS NPF             
    1500.00            DATA-SAT NPF             
    1500.00                 WEL WEL-1           
    1500.00                 CHD CHD_0           

 FMI READING HEAD FOR KSTP 1340 KPER 2
 UBDSV1 SAVING  STORAGE-AQUEOUS ON UNIT   1018 AT TIME STEP   1340, STRESS PERIOD      2
 UBDSV1 SAVING   STORAGE-SORBED ON UNIT   1018 AT TIME STEP   1340, STRESS PERIOD      2
 UBDSV1 SAVING     FLOW-JA-FACE ON UNIT   1018 AT TIME STEP   1340, STRESS PERIOD      2
 UBDSV06 SAVING  SOURCE-SINK MIX IN MODEL TRANS            PACKAGE TRANS           CONNECTED TO MODEL TRANS            PACKAGE SSM              ON UNIT   1018 AT TIME STEP   1340, STRESS PERIOD      2
1
  CONCENTRATION IN LAYER   1 AT END OF TIME STEP *** IN STRESS PERIOD    2
  ---------------------------------------------------------------------------

 ........................................................................................................................................................................................................................................................................................................................................................................................................................................................................................................................................................................................................................................................................................................................................................................................................................................................................................................................................................................................................................................
   1   2.5311E-09  2.9189E-09  3.3491E-09  3.8255E-09  4.3522E-09  4.9337E-09  5.5749E-09  6.2811E-09  7.0578E-09  7.9111E-09
       8.8475E-09  9.8740E-09  1.0998E-08  1.2228E-08  1.3572E-08  1.5039E-08  1.6640E-08  1.8385E-08  2.0286E-08  2.2354E-08
       2.4602E-08  2.7045E-08  2.9696E-08  3.2573E-08  3.5691E-08  3.9068E-08  4.2723E-08  4.6677E-08  5.0951E-08  5.5567E-08
       6.0550E-08  6.5926E-08  7.1720E-08  7.7963E-08  8.4684E-08  9.1915E-08  9.9691E-08  1.0805E-07  1.1702E-07  1.2665E-07
       1.3698E-07  1.4805E-07  1.5991E-07  1.7260E-07  1.8619E-07  2.0071E-07  2.1623E-07  2.3280E-07  2.5049E-07  2.6934E-07
       2.8944E-07  3.1085E-07  3.3364E-07  3.5787E-07  3.8363E-07  4.1099E-07  4.4002E-07  4.7082E-07  5.0345E-07  5.3801E-07
       5.7458E-07  6.1324E-07  6.5408E-07  6.9719E-07  7.4264E-07  7.9052E-07  8.4092E-07  8.9391E-07  9.4956E-07  1.0079E-06
       1.0691E-06  1.1332E-06  1.2001E-06  1.2700E-06  1.3428E-06  1.4186E-06  1.4974E-06  1.5791E-06  1.6637E-06  1.7511E-06
       1.8412E-06  1.9338E-06  2.0289E-06  2.1261E-06  2.2251E-06  2.3258E-06  2.4276E-06  2.5301E-06  2.6328E-06  2.7350E-06
       2.8361E-06  2.9352E-06  3.0313E-06  3.1235E-06  3.2104E-06  3.2907E-06  3.3628E-06  3.4250E-06  3.4753E-06  3.5114E-06
       3.5308E-06

 CONCENTRATION WILL BE SAVED ON UNIT 1019 AT END OF TIME STEP 1340, STRESS PERIOD    2


  MASS BUDGET FOR ENTIRE MODEL AT END OF TIME STEP 1340, STRESS PERIOD   2
  ---------------------------------------------------------------------------------------------------

     CUMULATIVE MASS      M       RATES FOR THIS TIME STEP      M/T          PACKAGE NAME    
     ------------------                 ------------------------                     ----------------

           IN:                                      IN:
           ---                                      ---
     STORAGE-AQUEOUS =       4.3508E-02       STORAGE-AQUEOUS =       8.0844E-10     MST                              
      STORAGE-SORBED =       1.0081E-02        STORAGE-SORBED =       1.0398E-09     MST                              
                 WEL =       4.7360E-02                   WEL =           0.0000     SSM_WEL-1                        
                 CHD =           0.0000                   CHD =           0.0000     SSM_CHD_0                        

            TOTAL IN =           0.1009              TOTAL IN =       1.8482E-09

          OUT:                                     OUT:
          ----                                     ----
     STORAGE-AQUEOUS =       4.3509E-02       STORAGE-AQUEOUS =           0.0000     MST                              
      STORAGE-SORBED =       1.0072E-02        STORAGE-SORBED =           0.0000     MST                              
                 WEL =           0.0000                   WEL =           0.0000     SSM_WEL-1                        
                 CHD =       4.7372E-02                   CHD =       2.0902E-08     SSM_CHD_0                        

           TOTAL OUT =           0.1010             TOTAL OUT =       2.0902E-08

            IN - OUT =      -4.0031E-06              IN - OUT =      -1.9054E-08

 PERCENT DISCREPANCY =          -0.00     PERCENT DISCREPANCY =        -167.50




         TIME SUMMARY AT END OF TIME STEP 1340 IN STRESS PERIOD    2
                    SECONDS     MINUTES      HOURS       DAYS        YEARS
                    -----------------------------------------------------------
   TIME STEP LENGTH  1.0000     1.66667E-02 2.77778E-04 1.15741E-05 3.16881E-08
 STRESS PERIOD TIME  1340.0      22.333     0.37222     1.55093E-02 4.24620E-05
         TOTAL TIME  1500.0      25.000     0.41667     1.73611E-02 4.75321E-05


end timestep

