                                   MODFLOW 6
                U.S. GEOLOGICAL SURVEY MODULAR HYDROLOGIC MODEL
                          GROUNDWATER FLOW MODEL (GWF)
                   VERSION 6.3.0 release candidate 02/06/2022
                               ***DEVELOP MODE***

   MODFLOW 6 compiled Feb 06 2022 02:35:51 with Intel(R) Fortran Intel(R) 64
   Compiler Classic for applications running on Intel(R) 64, Version 2021.5.0
                             Build 20211109_000000

This software is preliminary or provisional and is subject to 
revision. It is being provided to meet the need for timely best 
science. The software has not received final approval by the U.S. 
Geological Survey (USGS). No warranty, expressed or implied, is made 
by the USGS or the U.S. Government as to the functionality of the 
software and related material nor shall the fact of release 
constitute any such warranty. The software is provided on the 
condition that neither the USGS nor the U.S. Government shall be held 
liable for any damages resulting from the authorized or unauthorized 
use of the software.


As a work of the United States Government, this USGS product is 
in the public domain within the United States. You can copy, 
modify, distribute, and perform the work, even for commercial 
purposes, all without asking permission. Additionally, USGS 
waives copyright and related rights in the work worldwide 
through CC0 1.0 Universal Public Domain Dedication 
(https://creativecommons.org/publicdomain/zero/1.0/).

The following GNU Lesser General Public License (LGPL) libraries
are used in this USGS product:

    SPARSKIT version 2.0
      ilut, luson, and qsplit 
      (https://www-users.cse.umn.edu/~saad/software/SPARSKIT/)

    RCM - Reverse Cuthill McKee Ordering
      (https://people.math.sc.edu/Burkardt/f_src/rcm/rcm.html)

    BLAS - Basic Linear Algebra Subprograms Level 1
      (https://people.math.sc.edu/Burkardt/f_src/blas1_d/blas1_d.html)

    SPARSEKIT - Sparse Matrix Utility Package
      amux, dperm, dvperm, rperm, and cperm
      (https://people.sc.fsu.edu/~jburkardt/f77_src/sparsekit/sparsekit.html)

The following BSD-3 License libraries are used in this USGS product:

    Modern Fortran DAG Library
      Copyright (c) 2018, Jacob Williams
      All rights reserved.
      (https://github.com/jacobwilliams/daglib)

MODFLOW 6 compiler options: /O2 /heap-arrays:0 /fpe:0 /traceback /nologo /fpp
/c /module:.\mod_temp\ /object:.\obj_temp\

System command used to initiate simulation:
E:\15_REPOS\00_BETAMI\w10_______others\04_Mnfienen\05_\examples\pleasant_lgr\mf6.exe

MODFLOW was compiled using uniform precision.

Real Variables
  KIND: 8
  TINY (smallest non-zero value):    2.225074-308
  HUGE (largest value):    1.797693+308
  PRECISION: 15
  BIT SIZE: 64

Integer Variables
  KIND: 4
  HUGE (largest value): 2147483647
  BIT SIZE: 32

Long Integer Variables
  KIND: 8
  HUGE (largest value): 9223372036854775807
  BIT SIZE: 64

Logical Variables
  KIND: 4
  BIT SIZE: 32
 

 OPENED plsnt_lgr_parent.dis
 FILE TYPE:DIS6                   UNIT 1005   STATUS:OLD                 
 FORMAT:FORMATTED              ACCESS:SEQUENTIAL          
 ACTION:READ                


 OPENED plsnt_lgr_parent.ic
 FILE TYPE:IC6                    UNIT 1006   STATUS:OLD                 
 FORMAT:FORMATTED              ACCESS:SEQUENTIAL          
 ACTION:READ                


 OPENED plsnt_lgr_parent.npf
 FILE TYPE:NPF6                   UNIT 1007   STATUS:OLD                 
 FORMAT:FORMATTED              ACCESS:SEQUENTIAL          
 ACTION:READ                


 OPENED plsnt_lgr_parent.sto
 FILE TYPE:STO6                   UNIT 1008   STATUS:OLD                 
 FORMAT:FORMATTED              ACCESS:SEQUENTIAL          
 ACTION:READ                


 OPENED plsnt_lgr_parent.rcha
 FILE TYPE:RCH6                   UNIT 1009   STATUS:OLD                 
 FORMAT:FORMATTED              ACCESS:SEQUENTIAL          
 ACTION:READ                


 OPENED plsnt_lgr_parent.oc
 FILE TYPE:OC6                    UNIT 1010   STATUS:OLD                 
 FORMAT:FORMATTED              ACCESS:SEQUENTIAL          
 ACTION:READ                


 OPENED plsnt_lgr_parent.chd
 FILE TYPE:CHD6                   UNIT 1011   STATUS:OLD                 
 FORMAT:FORMATTED              ACCESS:SEQUENTIAL          
 ACTION:READ                


 OPENED plsnt_lgr_parent.sfr
 FILE TYPE:SFR6                   UNIT 1012   STATUS:OLD                 
 FORMAT:FORMATTED              ACCESS:SEQUENTIAL          
 ACTION:READ                


 OPENED plsnt_lgr_parent.wel
 FILE TYPE:WEL6                   UNIT 1013   STATUS:OLD                 
 FORMAT:FORMATTED              ACCESS:SEQUENTIAL          
 ACTION:READ                


 OPENED plsnt_lgr_parent.obs
 FILE TYPE:OBS6                   UNIT 1014   STATUS:OLD                 
 FORMAT:FORMATTED              ACCESS:SEQUENTIAL          
 ACTION:READ                

 NAMEFILE OPTIONS:
    STRESS PACKAGE INPUT WILL BE PRINTED FOR ALL MODEL STRESS PACKAGES
    FLOWS WILL BE SAVED TO BUDGET FILE SPECIFIED IN OUTPUT CONTROL
    NEWTON-RAPHSON method enabled for the model.
    NEWTON-RAPHSON UNDER-RELAXATION based on the bottom elevation of the model will be applied to the model.

 DIS -- STRUCTURED GRID DISCRETIZATION PACKAGE, VERSION 2 : 3/27/2014 - INPUT READ FROM UNIT 1005


 # Pleasant Lake test case version 0.1.post55.dev0+g106385f
 # File generated by Flopy version 3.10.0.dev1 on 01/31/2025 at 10:09:05.
 # via modflow-setup version 0.6.0 at 2025-01-31 10:09:05
 PROCESSING DISCRETIZATION OPTIONS
    MODEL LENGTH UNIT IS METERS
    XORIGIN SPECIFIED AS     553400.000000000    
    YORIGIN SPECIFIED AS     387800.000000000    
    ANGROT SPECIFIED AS     0.00000000000000    
 END OF DISCRETIZATION OPTIONS
 PROCESSING DISCRETIZATION DIMENSIONS
    NLAY =       5
    NROW =      25
    NCOL =      25
 END OF DISCRETIZATION DIMENSIONS
 PROCESSING GRIDDATA

 OPENED .\external\plsnt_lgr_parent_botm_000.dat
 FILE TYPE:OPEN/CLOSE   UNIT 1027   STATUS:OLD                 
 FORMAT:FORMATTED              ACCESS:SEQUENTIAL          
 ACTION:READ                


 OPENED .\external\plsnt_lgr_parent_botm_001.dat
 FILE TYPE:OPEN/CLOSE   UNIT 1028   STATUS:OLD                 
 FORMAT:FORMATTED              ACCESS:SEQUENTIAL          
 ACTION:READ                


 OPENED .\external\plsnt_lgr_parent_botm_002.dat
 FILE TYPE:OPEN/CLOSE   UNIT 1029   STATUS:OLD                 
 FORMAT:FORMATTED              ACCESS:SEQUENTIAL          
 ACTION:READ                


 OPENED .\external\plsnt_lgr_parent_botm_003.dat
 FILE TYPE:OPEN/CLOSE   UNIT 1030   STATUS:OLD                 
 FORMAT:FORMATTED              ACCESS:SEQUENTIAL          
 ACTION:READ                


 OPENED .\external\plsnt_lgr_parent_botm_004.dat
 FILE TYPE:OPEN/CLOSE   UNIT 1031   STATUS:OLD                 
 FORMAT:FORMATTED              ACCESS:SEQUENTIAL          
 ACTION:READ                


 OPENED .\external\plsnt_lgr_parent_idomain_000.dat
 FILE TYPE:OPEN/CLOSE   UNIT 1032   STATUS:OLD                 
 FORMAT:FORMATTED              ACCESS:SEQUENTIAL          
 ACTION:READ                


 OPENED .\external\plsnt_lgr_parent_idomain_001.dat
 FILE TYPE:OPEN/CLOSE   UNIT 1033   STATUS:OLD                 
 FORMAT:FORMATTED              ACCESS:SEQUENTIAL          
 ACTION:READ                


 OPENED .\external\plsnt_lgr_parent_idomain_002.dat
 FILE TYPE:OPEN/CLOSE   UNIT 1034   STATUS:OLD                 
 FORMAT:FORMATTED              ACCESS:SEQUENTIAL          
 ACTION:READ                


 OPENED .\external\plsnt_lgr_parent_idomain_003.dat
 FILE TYPE:OPEN/CLOSE   UNIT 1035   STATUS:OLD                 
 FORMAT:FORMATTED              ACCESS:SEQUENTIAL          
 ACTION:READ                


 OPENED .\external\plsnt_lgr_parent_idomain_004.dat
 FILE TYPE:OPEN/CLOSE   UNIT 1036   STATUS:OLD                 
 FORMAT:FORMATTED              ACCESS:SEQUENTIAL          
 ACTION:READ                

 END PROCESSING GRIDDATA

 THE SPECIFIED IDOMAIN RESULTS IN A REDUCED NUMBER OF CELLS.
 NUMBER OF USER NODES: 3125
 NUMBER OF NODES IN SOLUTION: 1650



 NPF -- NODE PROPERTY FLOW PACKAGE, VERSION 1, 3/30/2015 INPUT READ FROM UNIT 1007


 # Pleasant Lake test case version 0.1.post55.dev0+g106385f
 # File generated by Flopy version 3.10.0.dev1 on 01/31/2025 at 10:09:05.
 # via modflow-setup version 0.6.0 at 2025-01-31 10:09:05
 PROCESSING NPF OPTIONS
    CELL-BY-CELL FLOW INFORMATION WILL BE SAVED TO BINARY FILE WHENEVER ICBCFL IS NOT ZERO.
 END OF NPF OPTIONS

 WEL   -- WEL PACKAGE, VERSION 8, 2/22/2014 INPUT READ FROM UNIT 1013
 # Pleasant Lake test case version 0.1.post55.dev0+g106385f
 # File generated by Flopy version 3.10.0.dev1 on 01/31/2025 at 10:09:05.
 # via modflow-setup version 0.6.0 at 2025-01-31 10:09:05

 PROCESSING WEL OPTIONS
    WEL BOUNDARIES HAVE NAMES IN LAST COLUMN.
    LISTS OF WEL CELLS WILL BE PRINTED.
    WEL FLOWS WILL BE PRINTED TO LISTING FILE.
    FLOWS WILL BE SAVED TO BUDGET FILE SPECIFIED IN OUTPUT CONTROL

 OPENED plsnt_lgr_parent.wel.obs
 FILE TYPE:OBS   UNIT 1037   STATUS:OLD                 
 FORMAT:FORMATTED              ACCESS:SEQUENTIAL          
 ACTION:READ                

 END OF WEL OPTIONS

 PROCESSING WEL DIMENSIONS
    MAXBOUND =       2
 END OF WEL DIMENSIONS

 RCH   -- RCH PACKAGE, VERSION 8, 2/22/2014 INPUT READ FROM UNIT 1009
 # Pleasant Lake test case version 0.1.post55.dev0+g106385f
 # File generated by Flopy version 3.10.0.dev1 on 01/31/2025 at 10:09:05.
 # via modflow-setup version 0.6.0 at 2025-01-31 10:09:05

 PROCESSING RCH OPTIONS
    RECHARGE INPUT WILL BE READ AS ARRAY(S).
    LISTS OF RCHA CELLS WILL BE PRINTED.
    RCHA FLOWS WILL BE PRINTED TO LISTING FILE.
    FLOWS WILL BE SAVED TO BUDGET FILE SPECIFIED IN OUTPUT CONTROL
 END OF RCHA OPTIONS

 CHD   -- CHD PACKAGE, VERSION 8, 2/22/2014 INPUT READ FROM UNIT 1011
 # Pleasant Lake test case version 0.1.post55.dev0+g106385f
 # File generated by Flopy version 3.10.0.dev1 on 01/31/2025 at 10:09:05.
 # via modflow-setup version 0.6.0 at 2025-01-31 10:09:05

 PROCESSING CHD OPTIONS
    CHD BOUNDARIES HAVE NAMES IN LAST COLUMN.
    FLOWS WILL BE SAVED TO BUDGET FILE SPECIFIED IN OUTPUT CONTROL

 OPENED plsnt_lgr_parent.chd.obs
 FILE TYPE:OBS   UNIT 1038   STATUS:OLD                 
 FORMAT:FORMATTED              ACCESS:SEQUENTIAL          
 ACTION:READ                

 END OF CHD OPTIONS

 PROCESSING CHD DIMENSIONS
    MAXBOUND =     269
 END OF CHD DIMENSIONS

 SFR   -- SFR PACKAGE, VERSION 8, 2/22/2014 INPUT READ FROM UNIT 1012
 # Pleasant Lake test case version 0.1.post55.dev0+g106385f
 # File created by modflow-setup version 0.6.0 at 2025-01-31 10:09:05
 # MODFLOW-6 SFR input; created by SFRmaker v. 0.11.3.post37+gad8cb97

 PROCESSING SFR OPTIONS
    FLOWS WILL BE SAVED TO BUDGET FILE SPECIFIED IN OUTPUT CONTROL
    MOVER OPTION ENABLED

 OPENED plsnt_lgr_parent.sfr.out.bin
 FILE TYPE:DATA(BINARY)   UNIT 1039   STATUS:REPLACE             
 FORMAT:UNFORMATTED            ACCESS:STREAM              
 ACTION:READWRITE           

    SFR  BUDGET  WILL BE SAVED TO FILE: plsnt_lgr_parent.sfr.out.bin
    OPENED ON UNIT: 1039

 OPENED plsnt_lgr_parent.sfr.stage.bin
 FILE TYPE:DATA(BINARY)   UNIT 1040   STATUS:REPLACE             
 FORMAT:UNFORMATTED            ACCESS:STREAM              
 ACTION:READWRITE           

    SFR  STAGE  WILL BE SAVED TO FILE: plsnt_lgr_parent.sfr.stage.bin
    OPENED ON UNIT: 1040

 OPENED plsnt_lgr_parent.sfr.obs
 FILE TYPE:OBS   UNIT 1041   STATUS:OLD                 
 FORMAT:FORMATTED              ACCESS:SEQUENTIAL          
 ACTION:READ                

    UNIT CONVERSION VALUE (86400.00000000000) SPECIFIED.
    AUXILIARY SFR VARIABLE: LINE_ID         
 END OF SFR OPTIONS

 PROCESSING SFR DIMENSIONS
    NREACHES = 16
 END OF SFR DIMENSIONS

 OPENED external\plsnt_lgr_parent_packagedata.dat
 FILE TYPE:OPEN/CLOSE   UNIT 1042   STATUS:OLD                 
 FORMAT:FORMATTED              ACCESS:SEQUENTIAL          
 ACTION:READ                


 PROCESSING SFR PACKAGEDATA
 #rno k i j rlen rwid rgrd rtp rbth rhk man ncon ustrf ndv line_id
 END OF SFR PACKAGEDATA

 PROCESSING SFR CONNECTIONDATA
 END OF SFR CONNECTIONDATA

 IC -- INITIAL CONDITIONS PACKAGE, VERSION 8, 3/28/2015 INPUT READ FROM UNIT 1006
 # Pleasant Lake test case version 0.1.post55.dev0+g106385f
 # File generated by Flopy version 3.10.0.dev1 on 01/31/2025 at 10:09:05.
 # via modflow-setup version 0.6.0 at 2025-01-31 10:09:05
 PROCESSING IC OPTIONS
 END OF IC OPTIONS
 PROCESSING GRIDDATA

 OPENED .\external\plsnt_lgr_parent_strt_000.dat
 FILE TYPE:OPEN/CLOSE   UNIT 1061   STATUS:OLD                 
 FORMAT:FORMATTED              ACCESS:SEQUENTIAL          
 ACTION:READ                


 OPENED .\external\plsnt_lgr_parent_strt_001.dat
 FILE TYPE:OPEN/CLOSE   UNIT 1062   STATUS:OLD                 
 FORMAT:FORMATTED              ACCESS:SEQUENTIAL          
 ACTION:READ                


 OPENED .\external\plsnt_lgr_parent_strt_002.dat
 FILE TYPE:OPEN/CLOSE   UNIT 1063   STATUS:OLD                 
 FORMAT:FORMATTED              ACCESS:SEQUENTIAL          
 ACTION:READ                


 OPENED .\external\plsnt_lgr_parent_strt_003.dat
 FILE TYPE:OPEN/CLOSE   UNIT 1064   STATUS:OLD                 
 FORMAT:FORMATTED              ACCESS:SEQUENTIAL          
 ACTION:READ                


 OPENED .\external\plsnt_lgr_parent_strt_004.dat
 FILE TYPE:OPEN/CLOSE   UNIT 1065   STATUS:OLD                 
 FORMAT:FORMATTED              ACCESS:SEQUENTIAL          
 ACTION:READ                

 END PROCESSING GRIDDATA
 PROCESSING GRIDDATA

                ICELLTYPE = 1

 OPENED .\external\plsnt_lgr_parent_k_000.dat
 FILE TYPE:OPEN/CLOSE   UNIT 1066   STATUS:OLD                 
 FORMAT:FORMATTED              ACCESS:SEQUENTIAL          
 ACTION:READ                


 OPENED .\external\plsnt_lgr_parent_k_001.dat
 FILE TYPE:OPEN/CLOSE   UNIT 1067   STATUS:OLD                 
 FORMAT:FORMATTED              ACCESS:SEQUENTIAL          
 ACTION:READ                


 OPENED .\external\plsnt_lgr_parent_k_002.dat
 FILE TYPE:OPEN/CLOSE   UNIT 1068   STATUS:OLD                 
 FORMAT:FORMATTED              ACCESS:SEQUENTIAL          
 ACTION:READ                


 OPENED .\external\plsnt_lgr_parent_k_003.dat
 FILE TYPE:OPEN/CLOSE   UNIT 1069   STATUS:OLD                 
 FORMAT:FORMATTED              ACCESS:SEQUENTIAL          
 ACTION:READ                


 OPENED .\external\plsnt_lgr_parent_k_004.dat
 FILE TYPE:OPEN/CLOSE   UNIT 1070   STATUS:OLD                 
 FORMAT:FORMATTED              ACCESS:SEQUENTIAL          
 ACTION:READ                


 OPENED .\external\plsnt_lgr_parent_k33_000.dat
 FILE TYPE:OPEN/CLOSE   UNIT 1071   STATUS:OLD                 
 FORMAT:FORMATTED              ACCESS:SEQUENTIAL          
 ACTION:READ                


 OPENED .\external\plsnt_lgr_parent_k33_001.dat
 FILE TYPE:OPEN/CLOSE   UNIT 1072   STATUS:OLD                 
 FORMAT:FORMATTED              ACCESS:SEQUENTIAL          
 ACTION:READ                


 OPENED .\external\plsnt_lgr_parent_k33_002.dat
 FILE TYPE:OPEN/CLOSE   UNIT 1073   STATUS:OLD                 
 FORMAT:FORMATTED              ACCESS:SEQUENTIAL          
 ACTION:READ                


 OPENED .\external\plsnt_lgr_parent_k33_003.dat
 FILE TYPE:OPEN/CLOSE   UNIT 1074   STATUS:OLD                 
 FORMAT:FORMATTED              ACCESS:SEQUENTIAL          
 ACTION:READ                


 OPENED .\external\plsnt_lgr_parent_k33_004.dat
 FILE TYPE:OPEN/CLOSE   UNIT 1075   STATUS:OLD                 
 FORMAT:FORMATTED              ACCESS:SEQUENTIAL          
 ACTION:READ                

 K22 not provided.  Assuming K22 = K.
 END PROCESSING GRIDDATA

 STO -- STORAGE PACKAGE, VERSION 1, 5/19/2014 INPUT READ FROM UNIT 1008


 # Pleasant Lake test case version 0.1.post55.dev0+g106385f
 # File generated by Flopy version 3.10.0.dev1 on 01/31/2025 at 10:09:05.
 # via modflow-setup version 0.6.0 at 2025-01-31 10:09:05
 PROCESSING STORAGE OPTIONS
    CELL-BY-CELL FLOW INFORMATION WILL BE SAVED TO BINARY FILE WHENEVER ICBCFL IS NOT ZERO.
 END OF STORAGE OPTIONS
 PROCESSING GRIDDATA

                 ICONVERT = 1

 OPENED .\external\plsnt_lgr_parent_ss_000.dat
 FILE TYPE:OPEN/CLOSE   UNIT 1076   STATUS:OLD                 
 FORMAT:FORMATTED              ACCESS:SEQUENTIAL          
 ACTION:READ                


 OPENED .\external\plsnt_lgr_parent_ss_001.dat
 FILE TYPE:OPEN/CLOSE   UNIT 1077   STATUS:OLD                 
 FORMAT:FORMATTED              ACCESS:SEQUENTIAL          
 ACTION:READ                


 OPENED .\external\plsnt_lgr_parent_ss_002.dat
 FILE TYPE:OPEN/CLOSE   UNIT 1078   STATUS:OLD                 
 FORMAT:FORMATTED              ACCESS:SEQUENTIAL          
 ACTION:READ                


 OPENED .\external\plsnt_lgr_parent_ss_003.dat
 FILE TYPE:OPEN/CLOSE   UNIT 1079   STATUS:OLD                 
 FORMAT:FORMATTED              ACCESS:SEQUENTIAL          
 ACTION:READ                


 OPENED .\external\plsnt_lgr_parent_ss_004.dat
 FILE TYPE:OPEN/CLOSE   UNIT 1080   STATUS:OLD                 
 FORMAT:FORMATTED              ACCESS:SEQUENTIAL          
 ACTION:READ                


 OPENED .\external\plsnt_lgr_parent_sy_000.dat
 FILE TYPE:OPEN/CLOSE   UNIT 1081   STATUS:OLD                 
 FORMAT:FORMATTED              ACCESS:SEQUENTIAL          
 ACTION:READ                


 OPENED .\external\plsnt_lgr_parent_sy_001.dat
 FILE TYPE:OPEN/CLOSE   UNIT 1082   STATUS:OLD                 
 FORMAT:FORMATTED              ACCESS:SEQUENTIAL          
 ACTION:READ                


 OPENED .\external\plsnt_lgr_parent_sy_002.dat
 FILE TYPE:OPEN/CLOSE   UNIT 1083   STATUS:OLD                 
 FORMAT:FORMATTED              ACCESS:SEQUENTIAL          
 ACTION:READ                


 OPENED .\external\plsnt_lgr_parent_sy_003.dat
 FILE TYPE:OPEN/CLOSE   UNIT 1084   STATUS:OLD                 
 FORMAT:FORMATTED              ACCESS:SEQUENTIAL          
 ACTION:READ                


 OPENED .\external\plsnt_lgr_parent_sy_004.dat
 FILE TYPE:OPEN/CLOSE   UNIT 1085   STATUS:OLD                 
 FORMAT:FORMATTED              ACCESS:SEQUENTIAL          
 ACTION:READ                

 END PROCESSING GRIDDATA

The observation utility is active for "PLSNT_LGR_PARENT"
 # Pleasant Lake test case version 0.1.post55.dev0+g106385f
 # File generated by Flopy version 3.10.0.dev1 on 01/31/2025 at 10:09:05.
 # via modflow-setup version 0.6.0 at 2025-01-31 10:09:05

Processing observation options:

Text output number of digits of precision set to: 10
The PRINT_INPUT option has been specified.


 OBSERVATIONS READ FROM FILE "plsnt_lgr_parent.obs"
 ----------------------------------------------------------------------------------------------------------------------------------------------------------------------------------------------------------------------------
 NAME                                     TYPE                                       TIME         LOCATION DATA                              OUTPUT FILENAME                                                                 
 ----------------------------------------------------------------------------------------------------------------------------------------------------------------------------------------------------------------------------
 00400041_UWSP                            CONTINUOUS  HEAD                           ALL TIMES    "  1 6 25"                                 plsnt_lgr_parent.head.obs                                                       
 00400041_UWSP                            CONTINUOUS  HEAD                           ALL TIMES    "  2 6 25"                                 plsnt_lgr_parent.head.obs                                                       
 00400041_UWSP                            CONTINUOUS  HEAD                           ALL TIMES    "  3 6 25"                                 plsnt_lgr_parent.head.obs                                                       
 00400041_UWSP                            CONTINUOUS  HEAD                           ALL TIMES    "  4 6 25"                                 plsnt_lgr_parent.head.obs                                                       
 00400041_UWSP                            CONTINUOUS  HEAD                           ALL TIMES    "  5 6 25"                                 plsnt_lgr_parent.head.obs                                                       
 10041699_LK                              CONTINUOUS  HEAD                           ALL TIMES    "  5 25 9"                                 plsnt_lgr_parent.head.obs                                                       
 10051240_LK                              CONTINUOUS  HEAD                           ALL TIMES    "  3 21 18"                                plsnt_lgr_parent.head.obs                                                       
 10051240_LK                              CONTINUOUS  HEAD                           ALL TIMES    "  5 21 18"                                plsnt_lgr_parent.head.obs                                                       
 DE137                                    CONTINUOUS  HEAD                           ALL TIMES    "  1 2 25"                                 plsnt_lgr_parent.head.obs                                                       
 DE137                                    CONTINUOUS  HEAD                           ALL TIMES    "  2 2 25"                                 plsnt_lgr_parent.head.obs                                                       
 DE137                                    CONTINUOUS  HEAD                           ALL TIMES    "  3 2 25"                                 plsnt_lgr_parent.head.obs                                                       
 DE137                                    CONTINUOUS  HEAD                           ALL TIMES    "  4 2 25"                                 plsnt_lgr_parent.head.obs                                                       
 DE137                                    CONTINUOUS  HEAD                           ALL TIMES    "  5 2 25"                                 plsnt_lgr_parent.head.obs                                                       
 FS745                                    CONTINUOUS  HEAD                           ALL TIMES    "  1 2 25"                                 plsnt_lgr_parent.head.obs                                                       
 FS745                                    CONTINUOUS  HEAD                           ALL TIMES    "  2 2 25"                                 plsnt_lgr_parent.head.obs                                                       
 FS745                                    CONTINUOUS  HEAD                           ALL TIMES    "  3 2 25"                                 plsnt_lgr_parent.head.obs                                                       
 FS745                                    CONTINUOUS  HEAD                           ALL TIMES    "  4 2 25"                                 plsnt_lgr_parent.head.obs                                                       
 FS745                                    CONTINUOUS  HEAD                           ALL TIMES    "  5 2 25"                                 plsnt_lgr_parent.head.obs                                                       
 IG805                                    CONTINUOUS  HEAD                           ALL TIMES    "  1 4 4"                                  plsnt_lgr_parent.head.obs                                                       
 IG805                                    CONTINUOUS  HEAD                           ALL TIMES    "  2 4 4"                                  plsnt_lgr_parent.head.obs                                                       
 IG805                                    CONTINUOUS  HEAD                           ALL TIMES    "  3 4 4"                                  plsnt_lgr_parent.head.obs                                                       
 IG805                                    CONTINUOUS  HEAD                           ALL TIMES    "  4 4 4"                                  plsnt_lgr_parent.head.obs                                                       
 IG805                                    CONTINUOUS  HEAD                           ALL TIMES    "  5 4 4"                                  plsnt_lgr_parent.head.obs                                                       
 KN382                                    CONTINUOUS  HEAD                           ALL TIMES    "  1 10 25"                                plsnt_lgr_parent.head.obs                                                       
 KN382                                    CONTINUOUS  HEAD                           ALL TIMES    "  2 10 25"                                plsnt_lgr_parent.head.obs                                                       
 KN382                                    CONTINUOUS  HEAD                           ALL TIMES    "  3 10 25"                                plsnt_lgr_parent.head.obs                                                       
 KN382                                    CONTINUOUS  HEAD                           ALL TIMES    "  4 10 25"                                plsnt_lgr_parent.head.obs                                                       
 KN382                                    CONTINUOUS  HEAD                           ALL TIMES    "  5 10 25"                                plsnt_lgr_parent.head.obs                                                       
 KP959                                    CONTINUOUS  HEAD                           ALL TIMES    "  1 3 4"                                  plsnt_lgr_parent.head.obs                                                       
 KP959                                    CONTINUOUS  HEAD                           ALL TIMES    "  2 3 4"                                  plsnt_lgr_parent.head.obs                                                       
 KP959                                    CONTINUOUS  HEAD                           ALL TIMES    "  3 3 4"                                  plsnt_lgr_parent.head.obs                                                       
 KP959                                    CONTINUOUS  HEAD                           ALL TIMES    "  4 3 4"                                  plsnt_lgr_parent.head.obs                                                       
 KP959                                    CONTINUOUS  HEAD                           ALL TIMES    "  5 3 4"                                  plsnt_lgr_parent.head.obs                                                       
 KR958                                    CONTINUOUS  HEAD                           ALL TIMES    "  1 4 5"                                  plsnt_lgr_parent.head.obs                                                       
 KR958                                    CONTINUOUS  HEAD                           ALL TIMES    "  2 4 5"                                  plsnt_lgr_parent.head.obs                                                       
 KR958                                    CONTINUOUS  HEAD                           ALL TIMES    "  3 4 5"                                  plsnt_lgr_parent.head.obs                                                       
 KR958                                    CONTINUOUS  HEAD                           ALL TIMES    "  4 4 5"                                  plsnt_lgr_parent.head.obs                                                       
 KR958                                    CONTINUOUS  HEAD                           ALL TIMES    "  5 4 5"                                  plsnt_lgr_parent.head.obs                                                       
 LA257                                    CONTINUOUS  HEAD                           ALL TIMES    "  1 6 23"                                 plsnt_lgr_parent.head.obs                                                       
 LA257                                    CONTINUOUS  HEAD                           ALL TIMES    "  2 6 23"                                 plsnt_lgr_parent.head.obs                                                       
 LA257                                    CONTINUOUS  HEAD                           ALL TIMES    "  3 6 23"                                 plsnt_lgr_parent.head.obs                                                       
 LA257                                    CONTINUOUS  HEAD                           ALL TIMES    "  4 6 23"                                 plsnt_lgr_parent.head.obs                                                       
 LA257                                    CONTINUOUS  HEAD                           ALL TIMES    "  5 6 23"                                 plsnt_lgr_parent.head.obs                                                       
 LA801                                    CONTINUOUS  HEAD                           ALL TIMES    "  1 3 3"                                  plsnt_lgr_parent.head.obs                                                       
 LA801                                    CONTINUOUS  HEAD                           ALL TIMES    "  2 3 3"                                  plsnt_lgr_parent.head.obs                                                       
 LA801                                    CONTINUOUS  HEAD                           ALL TIMES    "  3 3 3"                                  plsnt_lgr_parent.head.obs                                                       
 LA801                                    CONTINUOUS  HEAD                           ALL TIMES    "  4 3 3"                                  plsnt_lgr_parent.head.obs                                                       
 LA801                                    CONTINUOUS  HEAD                           ALL TIMES    "  5 3 3"                                  plsnt_lgr_parent.head.obs                                                       
 LC724                                    CONTINUOUS  HEAD                           ALL TIMES    "  1 2 8"                                  plsnt_lgr_parent.head.obs                                                       
 LC724                                    CONTINUOUS  HEAD                           ALL TIMES    "  2 2 8"                                  plsnt_lgr_parent.head.obs                                                       
 LC724                                    CONTINUOUS  HEAD                           ALL TIMES    "  3 2 8"                                  plsnt_lgr_parent.head.obs                                                       
 LC724                                    CONTINUOUS  HEAD                           ALL TIMES    "  4 2 8"                                  plsnt_lgr_parent.head.obs                                                       
 LC724                                    CONTINUOUS  HEAD                           ALL TIMES    "  5 2 8"                                  plsnt_lgr_parent.head.obs                                                       
 LJ884                                    CONTINUOUS  HEAD                           ALL TIMES    "  1 5 3"                                  plsnt_lgr_parent.head.obs                                                       
 LJ884                                    CONTINUOUS  HEAD                           ALL TIMES    "  2 5 3"                                  plsnt_lgr_parent.head.obs                                                       
 LJ884                                    CONTINUOUS  HEAD                           ALL TIMES    "  3 5 3"                                  plsnt_lgr_parent.head.obs                                                       
 LJ884                                    CONTINUOUS  HEAD                           ALL TIMES    "  4 5 3"                                  plsnt_lgr_parent.head.obs                                                       
 LJ884                                    CONTINUOUS  HEAD                           ALL TIMES    "  5 5 3"                                  plsnt_lgr_parent.head.obs                                                       
 LK_BURNIT_UWSP                           CONTINUOUS  HEAD                           ALL TIMES    "  5 25 10"                                plsnt_lgr_parent.head.obs                                                       
 LY769                                    CONTINUOUS  HEAD                           ALL TIMES    "  1 2 18"                                 plsnt_lgr_parent.head.obs                                                       
 LY769                                    CONTINUOUS  HEAD                           ALL TIMES    "  2 2 18"                                 plsnt_lgr_parent.head.obs                                                       
 LY769                                    CONTINUOUS  HEAD                           ALL TIMES    "  3 2 18"                                 plsnt_lgr_parent.head.obs                                                       
 LY769                                    CONTINUOUS  HEAD                           ALL TIMES    "  4 2 18"                                 plsnt_lgr_parent.head.obs                                                       
 LY769                                    CONTINUOUS  HEAD                           ALL TIMES    "  5 2 18"                                 plsnt_lgr_parent.head.obs                                                       
 MX617                                    CONTINUOUS  HEAD                           ALL TIMES    "  1 6 4"                                  plsnt_lgr_parent.head.obs                                                       
 MX617                                    CONTINUOUS  HEAD                           ALL TIMES    "  2 6 4"                                  plsnt_lgr_parent.head.obs                                                       
 MX617                                    CONTINUOUS  HEAD                           ALL TIMES    "  3 6 4"                                  plsnt_lgr_parent.head.obs                                                       
 MX617                                    CONTINUOUS  HEAD                           ALL TIMES    "  4 6 4"                                  plsnt_lgr_parent.head.obs                                                       
 MX617                                    CONTINUOUS  HEAD                           ALL TIMES    "  5 6 4"                                  plsnt_lgr_parent.head.obs                                                       
 NW269                                    CONTINUOUS  HEAD                           ALL TIMES    "  1 3 2"                                  plsnt_lgr_parent.head.obs                                                       
 NW269                                    CONTINUOUS  HEAD                           ALL TIMES    "  2 3 2"                                  plsnt_lgr_parent.head.obs                                                       
 NW269                                    CONTINUOUS  HEAD                           ALL TIMES    "  3 3 2"                                  plsnt_lgr_parent.head.obs                                                       
 NW269                                    CONTINUOUS  HEAD                           ALL TIMES    "  4 3 2"                                  plsnt_lgr_parent.head.obs                                                       
 NW269                                    CONTINUOUS  HEAD                           ALL TIMES    "  5 3 2"                                  plsnt_lgr_parent.head.obs                                                       
 NY036                                    CONTINUOUS  HEAD                           ALL TIMES    "  1 2 5"                                  plsnt_lgr_parent.head.obs                                                       
 NY036                                    CONTINUOUS  HEAD                           ALL TIMES    "  2 2 5"                                  plsnt_lgr_parent.head.obs                                                       
 NY036                                    CONTINUOUS  HEAD                           ALL TIMES    "  3 2 5"                                  plsnt_lgr_parent.head.obs                                                       
 NY036                                    CONTINUOUS  HEAD                           ALL TIMES    "  4 2 5"                                  plsnt_lgr_parent.head.obs                                                       
 NY036                                    CONTINUOUS  HEAD                           ALL TIMES    "  5 2 5"                                  plsnt_lgr_parent.head.obs                                                       
 OE676                                    CONTINUOUS  HEAD                           ALL TIMES    "  1 1 18"                                 plsnt_lgr_parent.head.obs                                                       
 OE676                                    CONTINUOUS  HEAD                           ALL TIMES    "  2 1 18"                                 plsnt_lgr_parent.head.obs                                                       
 OE676                                    CONTINUOUS  HEAD                           ALL TIMES    "  3 1 18"                                 plsnt_lgr_parent.head.obs                                                       
 OE676                                    CONTINUOUS  HEAD                           ALL TIMES    "  4 1 18"                                 plsnt_lgr_parent.head.obs                                                       
 OE676                                    CONTINUOUS  HEAD                           ALL TIMES    "  5 1 18"                                 plsnt_lgr_parent.head.obs                                                       
 OR193                                    CONTINUOUS  HEAD                           ALL TIMES    "  1 12 2"                                 plsnt_lgr_parent.head.obs                                                       
 OR193                                    CONTINUOUS  HEAD                           ALL TIMES    "  2 12 2"                                 plsnt_lgr_parent.head.obs                                                       
 OR193                                    CONTINUOUS  HEAD                           ALL TIMES    "  3 12 2"                                 plsnt_lgr_parent.head.obs                                                       
 OR193                                    CONTINUOUS  HEAD                           ALL TIMES    "  4 12 2"                                 plsnt_lgr_parent.head.obs                                                       
 OR193                                    CONTINUOUS  HEAD                           ALL TIMES    "  5 12 2"                                 plsnt_lgr_parent.head.obs                                                       
 RI958                                    CONTINUOUS  HEAD                           ALL TIMES    "  1 8 2"                                  plsnt_lgr_parent.head.obs                                                       
 RI958                                    CONTINUOUS  HEAD                           ALL TIMES    "  2 8 2"                                  plsnt_lgr_parent.head.obs                                                       
 RI958                                    CONTINUOUS  HEAD                           ALL TIMES    "  3 8 2"                                  plsnt_lgr_parent.head.obs                                                       
 RI958                                    CONTINUOUS  HEAD                           ALL TIMES    "  4 8 2"                                  plsnt_lgr_parent.head.obs                                                       
 RI958                                    CONTINUOUS  HEAD                           ALL TIMES    "  5 8 2"                                  plsnt_lgr_parent.head.obs                                                       
 RI971                                    CONTINUOUS  HEAD                           ALL TIMES    "  1 7 4"                                  plsnt_lgr_parent.head.obs                                                       
 RI971                                    CONTINUOUS  HEAD                           ALL TIMES    "  2 7 4"                                  plsnt_lgr_parent.head.obs                                                       
 RI971                                    CONTINUOUS  HEAD                           ALL TIMES    "  3 7 4"                                  plsnt_lgr_parent.head.obs                                                       
 RI971                                    CONTINUOUS  HEAD                           ALL TIMES    "  4 7 4"                                  plsnt_lgr_parent.head.obs                                                       
 RI971                                    CONTINUOUS  HEAD                           ALL TIMES    "  5 7 4"                                  plsnt_lgr_parent.head.obs                                                       
 RL198                                    CONTINUOUS  HEAD                           ALL TIMES    "  1 5 1"                                  plsnt_lgr_parent.head.obs                                                       
 RL198                                    CONTINUOUS  HEAD                           ALL TIMES    "  2 5 1"                                  plsnt_lgr_parent.head.obs                                                       
 RL198                                    CONTINUOUS  HEAD                           ALL TIMES    "  3 5 1"                                  plsnt_lgr_parent.head.obs                                                       
 RL198                                    CONTINUOUS  HEAD                           ALL TIMES    "  4 5 1"                                  plsnt_lgr_parent.head.obs                                                       
 RL198                                    CONTINUOUS  HEAD                           ALL TIMES    "  5 5 1"                                  plsnt_lgr_parent.head.obs                                                       
 RZ900                                    CONTINUOUS  HEAD                           ALL TIMES    "  1 3 2"                                  plsnt_lgr_parent.head.obs                                                       
 RZ900                                    CONTINUOUS  HEAD                           ALL TIMES    "  2 3 2"                                  plsnt_lgr_parent.head.obs                                                       
 RZ900                                    CONTINUOUS  HEAD                           ALL TIMES    "  3 3 2"                                  plsnt_lgr_parent.head.obs                                                       
 RZ900                                    CONTINUOUS  HEAD                           ALL TIMES    "  4 3 2"                                  plsnt_lgr_parent.head.obs                                                       
 RZ900                                    CONTINUOUS  HEAD                           ALL TIMES    "  5 3 2"                                  plsnt_lgr_parent.head.obs                                                       
 SA454                                    CONTINUOUS  HEAD                           ALL TIMES    "  1 6 3"                                  plsnt_lgr_parent.head.obs                                                       
 SA454                                    CONTINUOUS  HEAD                           ALL TIMES    "  2 6 3"                                  plsnt_lgr_parent.head.obs                                                       
 SA454                                    CONTINUOUS  HEAD                           ALL TIMES    "  3 6 3"                                  plsnt_lgr_parent.head.obs                                                       
 SA454                                    CONTINUOUS  HEAD                           ALL TIMES    "  4 6 3"                                  plsnt_lgr_parent.head.obs                                                       
 SA454                                    CONTINUOUS  HEAD                           ALL TIMES    "  5 6 3"                                  plsnt_lgr_parent.head.obs                                                       
 SB043                                    CONTINUOUS  HEAD                           ALL TIMES    "  1 2 7"                                  plsnt_lgr_parent.head.obs                                                       
 SB043                                    CONTINUOUS  HEAD                           ALL TIMES    "  2 2 7"                                  plsnt_lgr_parent.head.obs                                                       
 SB043                                    CONTINUOUS  HEAD                           ALL TIMES    "  3 2 7"                                  plsnt_lgr_parent.head.obs                                                       
 SB043                                    CONTINUOUS  HEAD                           ALL TIMES    "  4 2 7"                                  plsnt_lgr_parent.head.obs                                                       
 SB043                                    CONTINUOUS  HEAD                           ALL TIMES    "  5 2 7"                                  plsnt_lgr_parent.head.obs                                                       
 SH461                                    CONTINUOUS  HEAD                           ALL TIMES    "  1 1 25"                                 plsnt_lgr_parent.head.obs                                                       
 SH461                                    CONTINUOUS  HEAD                           ALL TIMES    "  2 1 25"                                 plsnt_lgr_parent.head.obs                                                       
 SH461                                    CONTINUOUS  HEAD                           ALL TIMES    "  3 1 25"                                 plsnt_lgr_parent.head.obs                                                       
 SH461                                    CONTINUOUS  HEAD                           ALL TIMES    "  4 1 25"                                 plsnt_lgr_parent.head.obs                                                       
 SH461                                    CONTINUOUS  HEAD                           ALL TIMES    "  5 1 25"                                 plsnt_lgr_parent.head.obs                                                       
 TJ700                                    CONTINUOUS  HEAD                           ALL TIMES    "  1 1 8"                                  plsnt_lgr_parent.head.obs                                                       
 TJ700                                    CONTINUOUS  HEAD                           ALL TIMES    "  2 1 8"                                  plsnt_lgr_parent.head.obs                                                       
 TJ700                                    CONTINUOUS  HEAD                           ALL TIMES    "  3 1 8"                                  plsnt_lgr_parent.head.obs                                                       
 TJ700                                    CONTINUOUS  HEAD                           ALL TIMES    "  4 1 8"                                  plsnt_lgr_parent.head.obs                                                       
 TJ700                                    CONTINUOUS  HEAD                           ALL TIMES    "  5 1 8"                                  plsnt_lgr_parent.head.obs                                                       
 TL342                                    CONTINUOUS  HEAD                           ALL TIMES    "  1 3 1"                                  plsnt_lgr_parent.head.obs                                                       
 TL342                                    CONTINUOUS  HEAD                           ALL TIMES    "  2 3 1"                                  plsnt_lgr_parent.head.obs                                                       
 TL342                                    CONTINUOUS  HEAD                           ALL TIMES    "  3 3 1"                                  plsnt_lgr_parent.head.obs                                                       
 TL342                                    CONTINUOUS  HEAD                           ALL TIMES    "  4 3 1"                                  plsnt_lgr_parent.head.obs                                                       
 TL342                                    CONTINUOUS  HEAD                           ALL TIMES    "  5 3 1"                                  plsnt_lgr_parent.head.obs                                                       
 TP151                                    CONTINUOUS  HEAD                           ALL TIMES    "  1 6 3"                                  plsnt_lgr_parent.head.obs                                                       
 TP151                                    CONTINUOUS  HEAD                           ALL TIMES    "  2 6 3"                                  plsnt_lgr_parent.head.obs                                                       
 TP151                                    CONTINUOUS  HEAD                           ALL TIMES    "  3 6 3"                                  plsnt_lgr_parent.head.obs                                                       
 TP151                                    CONTINUOUS  HEAD                           ALL TIMES    "  4 6 3"                                  plsnt_lgr_parent.head.obs                                                       
 TP151                                    CONTINUOUS  HEAD                           ALL TIMES    "  5 6 3"                                  plsnt_lgr_parent.head.obs                                                       
 WI482                                    CONTINUOUS  HEAD                           ALL TIMES    "  1 9 4"                                  plsnt_lgr_parent.head.obs                                                       
 WI482                                    CONTINUOUS  HEAD                           ALL TIMES    "  2 9 4"                                  plsnt_lgr_parent.head.obs                                                       
 WI482                                    CONTINUOUS  HEAD                           ALL TIMES    "  3 9 4"                                  plsnt_lgr_parent.head.obs                                                       
 WI482                                    CONTINUOUS  HEAD                           ALL TIMES    "  4 9 4"                                  plsnt_lgr_parent.head.obs                                                       
 WI482                                    CONTINUOUS  HEAD                           ALL TIMES    "  5 9 4"                                  plsnt_lgr_parent.head.obs                                                       
 WJ508                                    CONTINUOUS  HEAD                           ALL TIMES    "  1 1 25"                                 plsnt_lgr_parent.head.obs                                                       
 WJ508                                    CONTINUOUS  HEAD                           ALL TIMES    "  2 1 25"                                 plsnt_lgr_parent.head.obs                                                       
 WJ508                                    CONTINUOUS  HEAD                           ALL TIMES    "  3 1 25"                                 plsnt_lgr_parent.head.obs                                                       
 WJ508                                    CONTINUOUS  HEAD                           ALL TIMES    "  4 1 25"                                 plsnt_lgr_parent.head.obs                                                       
 WJ508                                    CONTINUOUS  HEAD                           ALL TIMES    "  5 1 25"                                 plsnt_lgr_parent.head.obs                                                       
 YG202                                    CONTINUOUS  HEAD                           ALL TIMES    "  1 5 7"                                  plsnt_lgr_parent.head.obs                                                       
 YG202                                    CONTINUOUS  HEAD                           ALL TIMES    "  2 5 7"                                  plsnt_lgr_parent.head.obs                                                       
 YG202                                    CONTINUOUS  HEAD                           ALL TIMES    "  3 5 7"                                  plsnt_lgr_parent.head.obs                                                       
 YG202                                    CONTINUOUS  HEAD                           ALL TIMES    "  4 5 7"                                  plsnt_lgr_parent.head.obs                                                       
 YG202                                    CONTINUOUS  HEAD                           ALL TIMES    "  5 5 7"                                  plsnt_lgr_parent.head.obs                                                       
 YH229                                    CONTINUOUS  HEAD                           ALL TIMES    "  1 5 17"                                 plsnt_lgr_parent.head.obs                                                       
 YH229                                    CONTINUOUS  HEAD                           ALL TIMES    "  2 5 17"                                 plsnt_lgr_parent.head.obs                                                       
 YH229                                    CONTINUOUS  HEAD                           ALL TIMES    "  3 5 17"                                 plsnt_lgr_parent.head.obs                                                       
 YH229                                    CONTINUOUS  HEAD                           ALL TIMES    "  4 5 17"                                 plsnt_lgr_parent.head.obs                                                       
 YH229                                    CONTINUOUS  HEAD                           ALL TIMES    "  5 5 17"                                 plsnt_lgr_parent.head.obs                                                       
 YS864                                    CONTINUOUS  HEAD                           ALL TIMES    "  1 4 1"                                  plsnt_lgr_parent.head.obs                                                       
 YS864                                    CONTINUOUS  HEAD                           ALL TIMES    "  2 4 1"                                  plsnt_lgr_parent.head.obs                                                       
 YS864                                    CONTINUOUS  HEAD                           ALL TIMES    "  3 4 1"                                  plsnt_lgr_parent.head.obs                                                       
 YS864                                    CONTINUOUS  HEAD                           ALL TIMES    "  4 4 1"                                  plsnt_lgr_parent.head.obs                                                       
 YS864                                    CONTINUOUS  HEAD                           ALL TIMES    "  5 4 1"                                  plsnt_lgr_parent.head.obs                                                       
 ----------------------------------------------------------------------------------------------------------------------------------------------------------------------------------------------------------------------------


    BINARY GRID INFORMATION WILL BE WRITTEN TO:
      UNIT NUMBER: 1087
      FILE NAME: E:\15_REPOS\00_BETAMI\w10_______others\04_Mnfienen\05_\examples\pleasant_lgr\plsnt_lgr_parent.dis.grb

 OPENED E:\15_REPOS\00_BETAMI\w10_______others\04_Mnfienen\05_\examples\pleasant_lgr\plsnt_lgr_parent.dis.grb
 FILE TYPE:DATA(BINARY)   UNIT 1087   STATUS:REPLACE             
 FORMAT:UNFORMATTED            ACCESS:STREAM              
 ACTION:READWRITE           

      THE LAST TIME STEP WILL BE PRINTED
      THE LAST TIME STEP WILL BE PRINTED
 # Pleasant Lake test case version 0.1.post55.dev0+g106385f
 # File generated by Flopy version 3.10.0.dev1 on 01/31/2025 at 10:09:05.
 # via modflow-setup version 0.6.0 at 2025-01-31 10:09:05

 PROCESSING OC OPTIONS

    BUDGET INFORMATION WILL BE WRITTEN TO:
      UNIT NUMBER: 1088
      FILE NAME: plsnt_lgr_parent.cbc

 OPENED plsnt_lgr_parent.cbc
 FILE TYPE:DATA(BINARY)   UNIT 1088   STATUS:REPLACE             
 FORMAT:UNFORMATTED            ACCESS:STREAM              
 ACTION:READWRITE           

    HEAD INFORMATION WILL BE WRITTEN TO:
      UNIT NUMBER: 1089
      FILE NAME: plsnt_lgr_parent.hds

 OPENED plsnt_lgr_parent.hds
 FILE TYPE:DATA(BINARY)   UNIT 1089   STATUS:REPLACE             
 FORMAT:UNFORMATTED            ACCESS:STREAM              
 ACTION:READWRITE           

 END OF OC OPTIONS

The observation utility is active for "WEL_0"
 # Pleasant Lake test case version 0.1.post55.dev0+g106385f
 # File generated by Flopy version 3.10.0.dev1 on 01/31/2025 at 10:09:05.
 # via modflow-setup version 0.6.0 at 2025-01-31 10:09:05

Processing observation options:



The observation utility is active for "CHD_0"
 # Pleasant Lake test case version 0.1.post55.dev0+g106385f
 # File generated by Flopy version 3.10.0.dev1 on 01/31/2025 at 10:09:05.
 # via modflow-setup version 0.6.0 at 2025-01-31 10:09:05

Processing observation options:



The observation utility is active for "SFR_0"

Processing observation options:

Text output number of digits of precision set to:  5
The PRINT_INPUT option has been specified.

 # obsname  obstype  rno

 OBSERVATIONS READ FROM FILE "plsnt_lgr_parent.sfr.obs"
 ----------------------------------------------------------------------------------------------------------------------------------------------------------------------------------------------------------------------------
 NAME                                     TYPE                                       TIME         LOCATION DATA                              OUTPUT FILENAME                                                                 
 ----------------------------------------------------------------------------------------------------------------------------------------------------------------------------------------------------------------------------
 2000000                                  CONTINUOUS  DOWNSTREAM-FLOW                ALL TIMES    "  1"                                      plsnt_lgr_parent.sfr.obs.output.csv                                             
 1000000                                  CONTINUOUS  DOWNSTREAM-FLOW                ALL TIMES    "  13"                                     plsnt_lgr_parent.sfr.obs.output.csv                                             
 ----------------------------------------------------------------------------------------------------------------------------------------------------------------------------------------------------------------------------



 SFR PACKAGE (SFR_0) STATIC REACH DATA
 ---------------------------------------------------------------------------------------------------------------------------------------
                                                                                                                              UPSTREAM  
   NUMBER   CELLID                  LENGTH       WIDTH        SLOPE         TOP       THICKNESS        HK       ROUGHNESS     FRACTION  
 ---------------------------------------------------------------------------------------------------------------------------------------
     1      (5,21,16)             203.97       3.6408       1.00000E-04  290.66       1.0000       1.0000       3.70000E-02  1.0000     
     2      (5,22,16)             142.93       3.6728       1.00000E-04  290.66       1.0000       1.0000       3.70000E-02  1.0000     
     3      (5,22,17)             70.154       3.6924       1.00000E-04  290.66       1.0000       1.0000       3.70000E-02  1.0000     
     4      (5,23,17)             250.40       3.7220       1.00000E-04  290.66       1.0000       1.0000       3.70000E-02  1.0000     
     5      (5,23,18)             168.28       3.7606       1.00000E-04  290.66       1.0000       1.0000       3.70000E-02  1.0000     
     6      (5,24,18)             64.600       3.7820       7.22364E-03  290.66       1.0000       1.0000       3.70000E-02  1.0000     
     7      (5,24,19)             186.91       3.8052       3.86956E-03  290.19       1.0000       1.0000       3.70000E-02  1.0000     
     8      (3,25,19)             305.24       3.8506       4.21510E-04  289.47       1.0000       1.0000       3.70000E-02  1.0000     
     9      (3,25,20)             201.47       3.8973       2.59185E-03  289.34       1.0000       1.0000       3.70000E-02  1.0000     
     10     (3,25,21)             224.37       3.9365       9.34133E-04  288.82       1.0000       1.0000       3.70000E-02  1.0000     
     11     (2,25,22)             210.66       3.9766       4.44658E-03  288.61       1.0000       1.0000       3.70000E-02  1.0000     
     12     (2,25,23)             224.08       4.0167       1.00000E-03  287.67       1.0000       1.0000       3.70000E-02  1.0000     
     13     (1,12,22)             219.31       4.3968       4.09631E-03  293.59       1.0000       1.0000       3.70000E-02  1.0000     
     14     (1,12,23)             202.81       4.4304       2.83778E-03  292.69       1.0000       1.0000       3.70000E-02  1.0000     
     15     (1,12,24)             201.48       4.4626       1.13095E-02  292.11       1.0000       1.0000       3.70000E-02  1.0000     
     16     (1,12,25)             205.90       4.4950       1.00000E-03  289.83       1.0000       1.0000       3.70000E-02  1.0000     
 ---------------------------------------------------------------------------------------------------------------------------------------



 SFR PACKAGE (SFR_0) STATIC REACH CONNECTION DATA
 --------------------------------
   REACH      CONN 1     CONN 2  
 --------------------------------
     1          2                
     2          1          3     
     3          2          4     
     4          3          5     
     5          4          6     
     6          5          7     
     7          6          8     
     8          7          9     
     9          8          10    
     10         9          11    
     11         10         12    
     12         11               
     13         14               
     14         13         15    
     15         14         16    
     16         15               
 --------------------------------



 SFR PACKAGE (SFR_0) STATIC UPSTREAM REACH CONNECTION DATA
 ---------------------
             UPSTREAM 
   REACH      CONN 1  
 ---------------------
     1                
     2          1     
     3          2     
     4          3     
     5          4     
     6          5     
     7          6     
     8          7     
     9          8     
     10         9     
     11         10    
     12         11    
     13               
     14         13    
     15         14    
     16         15    
 ---------------------



 SFR PACKAGE (SFR_0) STATIC DOWNSTREAM REACH CONNECTION DATA
 ---------------------
            DOWNSTREAM
   REACH      CONN 1  
 ---------------------
     1          2     
     2          3     
     3          4     
     4          5     
     5          6     
     6          7     
     7          8     
     8          9     
     9          10    
     10         11    
     11         12    
     12               
     13         14    
     14         15    
     15         16    
     16               
 ---------------------



start timestep kper="1" kstp="1" mode="normal"


 BEGIN READING OUTPUT CONTROL FOR STRESS PERIOD 1
      THE LAST TIME STEP WILL BE SAVED
      THE LAST TIME STEP WILL BE SAVED

 END READING OUTPUT CONTROL FOR STRESS PERIOD 1


 PROCESSING STORAGE PERIOD DATA
 END PROCESSING STORAGE PERIOD DATA


 STRESS PERIOD 1 IS STEADY-STATE


 OPENED .\external\plsnt_lgr_parent_wel_000.dat
 FILE TYPE:OPEN/CLOSE   UNIT 1124   STATUS:OLD                 
 FORMAT:FORMATTED              ACCESS:SEQUENTIAL          
 ACTION:READ                

 #k i j q boundname
 --------------------------------------------------------------------------------------------
  WEL NO.    LAYER    ROW     COL     STRESS RATE    BOUNDNAME                               
 --------------------------------------------------------------------------------------------
     1         5       9      23    -878.654000      PLEASANT_3-13-28                        
     2         5      20      22    -48.9226000      PLEASANT_3-24-27                        
 --------------------------------------------------------------------------------------------



 OPENED .\external\plsnt_lgr_parent_irch.dat
 FILE TYPE:OPEN/CLOSE   UNIT 1125   STATUS:OLD                 
 FORMAT:FORMATTED              ACCESS:SEQUENTIAL          
 ACTION:READ                


 OPENED .\external\plsnt_lgr_parent_rch_000.dat
 FILE TYPE:OPEN/CLOSE   UNIT 1126   STATUS:OLD                 
 FORMAT:FORMATTED              ACCESS:SEQUENTIAL          
 ACTION:READ                


 OPENED .\external\plsnt_lgr_parent_chd_000.dat
 FILE TYPE:OPEN/CLOSE   UNIT 1127   STATUS:OLD                 
 FORMAT:FORMATTED              ACCESS:SEQUENTIAL          
 ACTION:READ                

 #k i j head boundname
 --------------------------------------------------------------------------------------------
  CHD NO.    LAYER    ROW     COL         HEAD       BOUNDNAME                               
 --------------------------------------------------------------------------------------------
     1         1      11      25     290.755000      PERIMETER-HEADS                         
     2         1      12      25     290.196000      PERIMETER-HEADS                         
     3         1      13      25     290.098000      PERIMETER-HEADS                         
     4         1      18      25     288.902000      PERIMETER-HEADS                         
     5         2       1      25     298.283000      PERIMETER-HEADS                         
     6         2       2      25     297.628000      PERIMETER-HEADS                         
     7         2       3      25     296.828000      PERIMETER-HEADS                         
     8         2       4      25     296.176000      PERIMETER-HEADS                         
     9         2       5      25     295.569000      PERIMETER-HEADS                         
     10        2       6      25     294.913000      PERIMETER-HEADS                         
     11        2       7      25     294.076000      PERIMETER-HEADS                         
     12        2       8      25     293.059000      PERIMETER-HEADS                         
     13        2       9      25     292.156000      PERIMETER-HEADS                         
     14        2      10      25     291.383000      PERIMETER-HEADS                         
     15        2      11      25     290.763000      PERIMETER-HEADS                         
     16        2      12      25     290.228000      PERIMETER-HEADS                         
     17        2      13      25     290.105000      PERIMETER-HEADS                         
     18        2      14      25     289.956000      PERIMETER-HEADS                         
     19        2      15      25     289.768000      PERIMETER-HEADS                         
     20        2      16      25     289.526000      PERIMETER-HEADS                         
     21        2      17      25     289.231000      PERIMETER-HEADS                         
     22        2      18      25     288.906000      PERIMETER-HEADS                         
     23        2      19      25     288.643000      PERIMETER-HEADS                         
     24        2      21      25     288.044000      PERIMETER-HEADS                         
     25        2      24      25     286.763000      PERIMETER-HEADS                         
     26        2      25      25     286.259000      PERIMETER-HEADS                         
     27        2      25      22     287.661000      PERIMETER-HEADS                         
     28        2      25      23     287.122000      PERIMETER-HEADS                         
     29        2       1      18     303.342000      PERIMETER-HEADS                         
     30        2       1      19     302.359000      PERIMETER-HEADS                         
     31        2       1      20     301.660000      PERIMETER-HEADS                         
     32        2       1      21     300.976000      PERIMETER-HEADS                         
     33        2       1      22     300.265000      PERIMETER-HEADS                         
     34        2       1      23     299.620000      PERIMETER-HEADS                         
     35        2       1      24     298.922000      PERIMETER-HEADS                         
     36        3       1      25     298.269000      PERIMETER-HEADS                         
     37        3       2      25     297.608000      PERIMETER-HEADS                         
     38        3       3      25     296.838000      PERIMETER-HEADS                         
     39        3       4      25     296.179000      PERIMETER-HEADS                         
     40        3       5      25     295.559000      PERIMETER-HEADS                         
     41        3       6      25     294.889000      PERIMETER-HEADS                         
     42        3       7      25     294.050000      PERIMETER-HEADS                         
     43        3       8      25     293.060000      PERIMETER-HEADS                         
     44        3       9      25     292.173000      PERIMETER-HEADS                         
     45        3      10      25     291.407000      PERIMETER-HEADS                         
     46        3      11      25     290.776000      PERIMETER-HEADS                         
     47        3      12      25     290.292000      PERIMETER-HEADS                         
     48        3      13      25     290.119000      PERIMETER-HEADS                         
     49        3      14      25     289.947000      PERIMETER-HEADS                         
     50        3      15      25     289.746000      PERIMETER-HEADS                         
     51        3      16      25     289.507000      PERIMETER-HEADS                         
     52        3      17      25     289.223000      PERIMETER-HEADS                         
     53        3      18      25     288.912000      PERIMETER-HEADS                         
     54        3      19      25     288.646000      PERIMETER-HEADS                         
     55        3      20      25     288.401000      PERIMETER-HEADS                         
     56        3      21      25     288.039000      PERIMETER-HEADS                         
     57        3      22      25     287.675000      PERIMETER-HEADS                         
     58        3      23      25     287.255000      PERIMETER-HEADS                         
     59        3      24      25     286.765000      PERIMETER-HEADS                         
     60        3      25      25     286.271000      PERIMETER-HEADS                         
     61        3       1       1     313.393000      PERIMETER-HEADS                         
     62        3       2       1     313.126000      PERIMETER-HEADS                         
     63        3       3       1     312.629000      PERIMETER-HEADS                         
     64        3       4       1     312.430000      PERIMETER-HEADS                         
     65        3       5       1     312.199000      PERIMETER-HEADS                         
     66        3       6       1     311.979000      PERIMETER-HEADS                         
     67        3       7       1     311.760000      PERIMETER-HEADS                         
     68        3       8       1     311.507000      PERIMETER-HEADS                         
     69        3      25      18     290.758000      PERIMETER-HEADS                         
     70        3      25      19     289.311000      PERIMETER-HEADS                         
     71        3      25      20     288.744000      PERIMETER-HEADS                         
     72        3      25      21     288.142000      PERIMETER-HEADS                         
     73        3      25      22     287.660000      PERIMETER-HEADS                         
     74        3      25      23     287.128000      PERIMETER-HEADS                         
     75        3      25      24     286.722000      PERIMETER-HEADS                         
     76        3       1       2     312.887000      PERIMETER-HEADS                         
     77        3       1       3     312.573000      PERIMETER-HEADS                         
     78        3       1       4     312.253000      PERIMETER-HEADS                         
     79        3       1       5     311.909000      PERIMETER-HEADS                         
     80        3       1       6     311.559000      PERIMETER-HEADS                         
     81        3       1       7     311.168000      PERIMETER-HEADS                         
     82        3       1       8     310.730000      PERIMETER-HEADS                         
     83        3       1       9     310.206000      PERIMETER-HEADS                         
     84        3       1      10     309.636000      PERIMETER-HEADS                         
     85        3       1      11     309.058000      PERIMETER-HEADS                         
     86        3       1      12     308.449000      PERIMETER-HEADS                         
     87        3       1      13     307.759000      PERIMETER-HEADS                         
     88        3       1      14     306.934000      PERIMETER-HEADS                         
     89        3       1      15     306.064000      PERIMETER-HEADS                         
     90        3       1      16     305.171000      PERIMETER-HEADS                         
     91        3       1      17     304.284000      PERIMETER-HEADS                         
     92        3       1      18     303.344000      PERIMETER-HEADS                         
     93        3       1      19     302.398000      PERIMETER-HEADS                         
     94        3       1      20     301.675000      PERIMETER-HEADS                         
     95        3       1      21     300.980000      PERIMETER-HEADS                         
     96        3       1      22     300.269000      PERIMETER-HEADS                         
     97        3       1      23     299.611000      PERIMETER-HEADS                         
     98        3       1      24     298.921000      PERIMETER-HEADS                         
     99        4       1      25     298.254000      PERIMETER-HEADS                         
    100        4       2      25     297.589000      PERIMETER-HEADS                         
    101        4       3      25     296.848000      PERIMETER-HEADS                         
    102        4       4      25     296.182000      PERIMETER-HEADS                         
    103        4       5      25     295.549000      PERIMETER-HEADS                         
    104        4       6      25     294.864000      PERIMETER-HEADS                         
    105        4       7      25     294.026000      PERIMETER-HEADS                         
    106        4       8      25     293.059000      PERIMETER-HEADS                         
    107        4       9      25     292.192000      PERIMETER-HEADS                         
    108        4      10      25     291.438000      PERIMETER-HEADS                         
    109        4      11      25     290.804000      PERIMETER-HEADS                         
    110        4      12      25     290.365000      PERIMETER-HEADS                         
    111        4      13      25     290.144000      PERIMETER-HEADS                         
    112        4      14      25     289.947000      PERIMETER-HEADS                         
    113        4      15      25     289.732000      PERIMETER-HEADS                         
    114        4      16      25     289.495000      PERIMETER-HEADS                         
    115        4      17      25     289.220000      PERIMETER-HEADS                         
    116        4      18      25     288.921000      PERIMETER-HEADS                         
    117        4      19      25     288.650000      PERIMETER-HEADS                         
    118        4      20      25     288.382000      PERIMETER-HEADS                         
    119        4      21      25     288.033000      PERIMETER-HEADS                         
    120        4      22      25     287.669000      PERIMETER-HEADS                         
    121        4      23      25     287.250000      PERIMETER-HEADS                         
    122        4      24      25     286.769000      PERIMETER-HEADS                         
    123        4      25      25     286.285000      PERIMETER-HEADS                         
    124        4       1       1     313.324000      PERIMETER-HEADS                         
    125        4       2       1     313.013000      PERIMETER-HEADS                         
    126        4       3       1     312.572000      PERIMETER-HEADS                         
    127        4       4       1     312.408000      PERIMETER-HEADS                         
    128        4       5       1     312.178000      PERIMETER-HEADS                         
    129        4       6       1     311.965000      PERIMETER-HEADS                         
    130        4       7       1     311.746000      PERIMETER-HEADS                         
    131        4       8       1     311.495000      PERIMETER-HEADS                         
    132        4       9       1     311.220000      PERIMETER-HEADS                         
    133        4      10       1     310.955000      PERIMETER-HEADS                         
    134        4      11       1     310.698000      PERIMETER-HEADS                         
    135        4      12       1     310.412000      PERIMETER-HEADS                         
    136        4      13       1     310.097000      PERIMETER-HEADS                         
    137        4      14       1     309.760000      PERIMETER-HEADS                         
    138        4      15       1     309.398000      PERIMETER-HEADS                         
    139        4      25      13     295.630000      PERIMETER-HEADS                         
    140        4      25      14     294.643000      PERIMETER-HEADS                         
    141        4      25      15     293.731000      PERIMETER-HEADS                         
    142        4      25      16     292.811000      PERIMETER-HEADS                         
    143        4      25      17     291.866000      PERIMETER-HEADS                         
    144        4      25      18     290.757000      PERIMETER-HEADS                         
    145        4      25      19     289.310000      PERIMETER-HEADS                         
    146        4      25      20     288.752000      PERIMETER-HEADS                         
[...]
     80     (1,4,5)               0.0000000     
     81     (1,4,6)               0.0000000     
     82     (1,4,7)               7.4721360     
     83     (1,4,8)               7.4721360     
     84     (1,4,9)               3.7361100     
     85     (1,4,10)              0.0000000     
     86     (1,4,11)              0.0000000     
     87     (1,4,12)              3.0384284     
     88     (1,4,13)              2.2788628     
     89     (1,4,14)              0.75956200    
     90     (1,4,15)              0.0000000     
     91     (1,4,16)              0.0000000     
     92     (1,4,17)              0.0000000     
     93     (1,4,18)              0.0000000     
     94     (1,4,19)              0.0000000     
     95     (1,4,20)              0.0000000     
     96     (1,4,21)              5.7226240     
     97     (1,4,22)              10.727544     
     98     (1,4,23)              6.3640560     
     99     (1,4,24)              0.0000000     
    100     (1,4,25)              0.0000000     
    101     (1,5,1)               0.0000000     
    102     (1,5,2)               0.0000000     
    103     (1,5,3)               0.0000000     
    104     (1,5,4)               0.0000000     
    105     (1,5,5)               0.0000000     
    106     (1,5,6)               0.0000000     
    107     (1,5,7)               7.4717920     
    108     (1,5,8)               14.943584     
    109     (1,5,9)               14.943580     
    110     (1,5,10)              0.0000000     
    111     (1,5,11)              0.0000000     
    112     (1,5,12)              1.5188660     
    113     (1,5,13)              2.2783408     
    114     (1,5,14)              0.0000000     
    115     (1,5,15)              0.0000000     
    116     (1,5,16)              0.0000000     
    117     (1,5,17)              0.0000000     
    118     (1,5,18)              0.0000000     
    119     (1,5,19)              0.0000000     
    120     (1,5,20)              0.0000000     
    121     (1,5,21)              6.0430160     
    122     (1,5,22)              8.5454080     
    123     (1,5,23)              5.7222280     
    124     (1,5,24)              0.0000000     
    125     (1,5,25)              0.0000000     
    126     (1,6,1)               0.0000000     
    127     (1,6,2)               0.0000000     
    128     (1,6,3)               0.0000000     
    129     (1,6,4)               0.0000000     
    147     (1,6,22)              0.0000000     
    148     (1,6,23)              0.0000000     
    149     (1,6,24)              0.0000000     
    150     (1,6,25)              0.0000000     
    151     (1,7,1)               0.0000000     
    152     (1,7,2)               0.0000000     
    153     (1,7,3)               0.0000000     
    154     (1,7,4)               0.0000000     
    172     (1,7,22)              16.166220     
    173     (1,7,23)              15.452312     
    174     (1,7,24)              11.053780     
    175     (1,7,25)              0.0000000     
    176     (1,8,1)               0.0000000     
    177     (1,8,2)               0.0000000     
    178     (1,8,3)               0.0000000     
    179     (1,8,4)               0.0000000     
    197     (1,8,22)              18.050984     
    198     (1,8,23)              16.745748     
    199     (1,8,24)              15.440516     
    200     (1,8,25)              7.7202560     
    201     (1,9,1)               0.0000000     
    202     (1,9,2)               0.0000000     
    203     (1,9,3)               0.0000000     
    204     (1,9,4)               0.0000000     
    222     (1,9,22)              0.0000000     
    223     (1,9,23)              0.0000000     
    224     (1,9,24)              0.0000000     
    225     (1,9,25)              0.0000000     
    226     (1,10,1)              0.0000000     
    227     (1,10,2)              0.0000000     
    228     (1,10,3)              0.0000000     
    229     (1,10,4)              0.0000000     
    247     (1,10,22)             0.0000000     
    248     (1,10,23)             0.0000000     
    249     (1,10,24)             0.0000000     
    250     (1,10,25)             0.0000000     
    251     (1,11,1)              0.0000000     
    252     (1,11,2)              0.0000000     
    253     (1,11,3)              0.0000000     
    254     (1,11,4)              0.0000000     
    272     (1,11,22)             0.0000000     
    273     (1,11,23)             0.0000000     
    274     (1,11,24)             0.0000000     
    275     (1,11,25)             0.0000000     
    276     (1,12,1)              0.0000000     
    277     (1,12,2)              0.0000000     
    278     (1,12,3)              0.0000000     
    279     (1,12,4)              0.0000000     
    297     (1,12,22)             0.0000000     
    298     (1,12,23)             0.0000000     
    299     (1,12,24)             0.0000000     
    300     (1,12,25)             0.0000000     
    301     (1,13,1)              0.0000000     
    302     (1,13,2)              0.0000000     
    303     (1,13,3)              0.0000000     
    304     (1,13,4)              0.0000000     
    322     (1,13,22)             0.0000000     
    323     (1,13,23)             0.0000000     
    324     (1,13,24)             0.0000000     
    325     (1,13,25)             0.0000000     
    326     (1,14,1)              0.0000000     
    327     (1,14,2)              0.0000000     
    328     (1,14,3)              0.0000000     
    329     (1,14,4)              0.0000000     
    347     (1,14,22)             0.0000000     
    348     (1,14,23)             0.0000000     
    349     (1,14,24)             0.0000000     
    350     (1,14,25)             0.0000000     
    351     (1,15,1)              0.0000000     
    352     (1,15,2)              0.0000000     
    353     (1,15,3)              0.0000000     
    354     (1,15,4)              0.0000000     
    372     (1,15,22)             0.0000000     
    373     (1,15,23)             0.0000000     
    374     (1,15,24)             0.0000000     
    375     (1,15,25)             0.0000000     
    376     (1,16,1)              0.0000000     
    377     (1,16,2)              0.0000000     
    378     (1,16,3)              0.0000000     
    379     (1,16,4)              0.0000000     
    397     (1,16,22)             0.0000000     
    398     (1,16,23)             0.0000000     
    399     (1,16,24)             0.0000000     
    400     (1,16,25)             0.0000000     
    401     (1,17,1)              0.0000000     
    402     (1,17,2)              0.0000000     
    403     (1,17,3)              0.0000000     
    404     (1,17,4)              0.0000000     
    422     (1,17,22)             0.0000000     
    423     (1,17,23)             0.0000000     
    424     (1,17,24)             0.0000000     
    425     (1,17,25)             0.0000000     
    426     (1,18,1)              0.0000000     
    427     (1,18,2)              0.0000000     
    428     (1,18,3)              0.0000000     
    429     (1,18,4)              0.0000000     
    447     (1,18,22)             0.0000000     
    448     (1,18,23)             6.1812560     
    449     (1,18,24)             12.364080     
    450     (1,18,25)             0.0000000     
    451     (1,19,1)              0.0000000     
    452     (1,19,2)              0.0000000     
    453     (1,19,3)              0.0000000     
    454     (1,19,4)              0.0000000     
    472     (1,19,22)             0.0000000     
    473     (1,19,23)             9.9828920     
    474     (1,19,24)             12.363780     
    475     (1,19,25)             12.363780     
    476     (1,20,1)              0.0000000     
    477     (1,20,2)              0.0000000     
    478     (1,20,3)              0.0000000     
    479     (1,20,4)              0.0000000     
    497     (1,20,22)             16.115372     
    498     (1,20,23)             15.444520     
    499     (1,20,24)             6.1817800     
    500     (1,20,25)             6.1817760     
    501     (1,21,1)              0.0000000     
    502     (1,21,2)              0.0000000     
    503     (1,21,3)              0.0000000     
    504     (1,21,4)              0.0000000     
    505     (1,21,5)              0.0000000     
    506     (1,21,6)              0.0000000     
    507     (1,21,7)              0.0000000     
    508     (1,21,8)              0.0000000     
    509     (5,21,9)              0.0000000     
    510     (5,21,10)             0.0000000     
    511     (5,21,11)             0.0000000     
    512     (3,21,12)             0.0000000     
    513     (3,21,13)             0.0000000     
    514     (3,21,14)             0.0000000     
    515     (4,21,15)             0.0000000     
    516     (5,21,16)             0.0000000     
    517     (5,21,17)             0.0000000     
    518     (3,21,18)             6.5626720     
    519     (3,21,19)             7.2384880     
    520     (2,21,20)             3.6192448     
    521     (2,21,21)             0.0000000     
    522     (1,21,22)             8.4892920     
    523     (1,21,23)             8.5465880     
    524     (1,21,24)             4.3079560     
    525     (1,21,25)             0.0000000     
    526     (1,22,1)              0.0000000     
    527     (1,22,2)              0.0000000     
    528     (1,22,3)              0.0000000     
    529     (1,22,4)              0.0000000     
    530     (1,22,5)              0.0000000     
    531     (1,22,6)              0.0000000     
    532     (1,22,7)              0.0000000     
    533     (1,22,8)              0.0000000     
    534     (3,22,9)              0.0000000     
    535     (3,22,10)             0.0000000     
    536     (3,22,11)             0.0000000     
    537     (3,22,12)             0.0000000     
    538     (4,22,13)             0.0000000     
    539     (3,22,14)             0.0000000     
    540     (4,22,15)             0.0000000     
    541     (5,22,16)             0.0000000     
    542     (5,22,17)             3.2850412     
    543     (4,22,18)             10.025116     
    544     (4,22,19)             14.023100     
    545     (2,22,20)             10.630760     
    546     (3,22,21)             0.0000000     
    547     (1,22,22)             0.0000000     
    548     (1,22,23)             0.0000000     
    549     (1,22,24)             0.0000000     
    550     (1,22,25)             0.0000000     
    551     (1,23,1)              0.0000000     
    552     (1,23,2)              0.0000000     
    553     (1,23,3)              0.0000000     
    554     (1,23,4)              0.0000000     
    555     (1,23,5)              0.0000000     
    556     (1,23,6)              0.0000000     
    557     (1,23,7)              0.0000000     
    558     (1,23,8)              0.0000000     
    559     (2,23,9)              0.0000000     
    560     (3,23,10)             0.0000000     
    561     (3,23,11)             0.0000000     
    562     (3,23,12)             0.0000000     
    563     (3,23,13)             0.0000000     
    564     (3,23,14)             0.0000000     
    565     (3,23,15)             0.0000000     
    566     (3,23,16)             0.0000000     
    567     (5,23,17)             0.0000000     
    568     (5,23,18)             3.4625156     
    569     (4,23,19)             0.0000000     
    570     (2,23,20)             3.3922744     
    571     (1,23,21)             3.3922740     
    572     (1,23,22)             0.0000000     
    573     (1,23,23)             0.0000000     
    574     (1,23,24)             0.0000000     
    575     (1,23,25)             0.0000000     
    576     (1,24,1)              0.0000000     
    577     (1,24,2)              0.0000000     
    578     (1,24,3)              0.0000000     
    579     (2,24,4)              0.0000000     
    580     (2,24,5)              0.0000000     
    581     (2,24,6)              0.0000000     
    582     (3,24,7)              0.0000000     
    583     (2,24,8)              0.0000000     
    584     (2,24,9)              0.0000000     
    585     (4,24,10)             11.959316     
    586     (3,24,11)             0.0000000     
    587     (3,24,12)             0.0000000     
    588     (3,24,13)             0.0000000     
    589     (4,24,14)             0.0000000     
    590     (3,24,15)             0.0000000     
    591     (3,24,16)             0.0000000     
    592     (3,24,17)             0.0000000     
    593     (5,24,18)             0.0000000     
    594     (5,24,19)             0.0000000     
    595     (2,24,20)             0.0000000     
    596     (1,24,21)             0.0000000     
    597     (1,24,22)             0.0000000     
    598     (1,24,23)             0.0000000     
    599     (1,24,24)             0.0000000     
    600     (1,24,25)             0.0000000     
    601     (5,25,1)              0.0000000     
    602     (2,25,2)              0.0000000     
    603     (2,25,3)              0.0000000     
    604     (2,25,4)              0.0000000     
    605     (3,25,5)              0.0000000     
    606     (5,25,6)              0.0000000     
    607     (5,25,7)              0.0000000     
    608     (5,25,8)              0.0000000     
    609     (5,25,9)              0.0000000     
    610     (5,25,10)             0.0000000     
    611     (4,25,11)             0.0000000     
    612     (3,25,12)             0.0000000     
    613     (3,25,13)             0.0000000     
    614     (3,25,14)             0.0000000     
    615     (3,25,15)             0.0000000     
    616     (3,25,16)             0.0000000     
    617     (3,25,17)             0.0000000     
    618     (3,25,18)             0.0000000     
    619     (3,25,19)             0.0000000     
    620     (3,25,20)             0.0000000     
    621     (3,25,21)             0.0000000     
    622     (2,25,22)             0.0000000     
    623     (2,25,23)             0.0000000     
    624     (1,25,24)             0.0000000     
    625     (1,25,25)             0.0000000     
 -----------------------------------------------




 HEAD WILL BE SAVED ON UNIT 1089 AT END OF TIME STEP    1, STRESS PERIOD   13


  SFR_0 BUDGET FOR ENTIRE MODEL AT END OF TIME STEP    1, STRESS PERIOD  13
  ------------------------------------------------------------------------------

     CUMULATIVE SFR_0      L**3       RATES FOR THIS TIME STEP      L**3/T
     ------------------                 ------------------------

           IN:                                      IN:
           ---                                      ---
                 GWF =     1111435.1355                   GWF =        2660.9158
            RAINFALL =           0.0000              RAINFALL =           0.0000
         EVAPORATION =           0.0000           EVAPORATION =           0.0000
              RUNOFF =           0.0000                RUNOFF =           0.0000
          EXT-INFLOW =           0.0000            EXT-INFLOW =           0.0000
         EXT-OUTFLOW =           0.0000           EXT-OUTFLOW =           0.0000
             STORAGE =           0.0000               STORAGE =           0.0000
            FROM-MVR =      896177.5661              FROM-MVR =        2379.9774
              TO-MVR =           0.0000                TO-MVR =           0.0000
           AUXILIARY =           0.0000             AUXILIARY =           0.0000

            TOTAL IN =     2007612.7016              TOTAL IN =        5040.8932

          OUT:                                     OUT:
          ----                                     ----
                 GWF =         600.5506                   GWF =          18.3088
            RAINFALL =           0.0000              RAINFALL =           0.0000
         EVAPORATION =           0.0000           EVAPORATION =           0.0000
              RUNOFF =           0.0000                RUNOFF =           0.0000
          EXT-INFLOW =           0.0000            EXT-INFLOW =           0.0000
         EXT-OUTFLOW =     2007012.1510           EXT-OUTFLOW =        5022.5844
             STORAGE =           0.0000               STORAGE =           0.0000
            FROM-MVR =           0.0000              FROM-MVR =           0.0000
              TO-MVR =           0.0000                TO-MVR =           0.0000
           AUXILIARY =           0.0000             AUXILIARY =           0.0000

           TOTAL OUT =     2007612.7016             TOTAL OUT =        5040.8932

            IN - OUT =           0.0000              IN - OUT =       9.0949E-13

 PERCENT DISCREPANCY =           0.00     PERCENT DISCREPANCY =           0.00



  VOLUME BUDGET FOR ENTIRE MODEL AT END OF TIME STEP    1, STRESS PERIOD  13
  ---------------------------------------------------------------------------------------------------

     CUMULATIVE VOLUME      L**3       RATES FOR THIS TIME STEP      L**3/T          PACKAGE NAME    
     ------------------                 ------------------------                     ----------------

           IN:                                      IN:
           ---                                      ---
              STO-SS =         581.7990                STO-SS =           1.4925     STORAGE                          
              STO-SY =     2075705.7305                STO-SY =        5898.2914     STORAGE                          
                 WEL =           0.0000                   WEL =           0.0000     WEL_0                            
                RCHA =     2359857.8608                  RCHA =         548.1687     RCHA_0                           
                 CHD =     8274382.2803                   CHD =       21345.1535     CHD_0                            
                 SFR =         600.5418                   SFR =          18.3085     SFR_0                            
        FLOW-JA-FACE =     6904422.2160          FLOW-JA-FACE =       18887.3181     GWF-GWF_1                        

            TOTAL IN =    19615550.4283              TOTAL IN =       46698.7327

          OUT:                                     OUT:
          ----                                     ----
              STO-SS =         269.9561                STO-SS =           0.0000     STORAGE                          
              STO-SY =      853636.9211                STO-SY =           0.0000     STORAGE                          
                 WEL =      439180.5566                   WEL =           0.0000     WEL_0                            
                RCHA =           0.0000                  RCHA =           0.0000     RCHA_0                           
                 CHD =    10286776.9574                   CHD =       26789.3676     CHD_0                            
                 SFR =     1111434.2695                   SFR =        2660.9186     SFR_0                            
        FLOW-JA-FACE =     6924255.4349          FLOW-JA-FACE =       17248.4574     GWF-GWF_1                        

           TOTAL OUT =    19615554.0956             TOTAL OUT =       46698.7437

            IN - OUT =          -3.6673              IN - OUT =      -1.0988E-02

 PERCENT DISCREPANCY =          -0.00     PERCENT DISCREPANCY =          -0.00




         TIME SUMMARY AT END OF TIME STEP    1 IN STRESS PERIOD   13
                    SECONDS     MINUTES      HOURS       DAYS        YEARS
                    -----------------------------------------------------------
   TIME STEP LENGTH 2.67840E+06  44640.      744.00      31.000     8.48734E-02
 STRESS PERIOD TIME 2.67840E+06  44640.      744.00      31.000     8.48734E-02
         TOTAL TIME 3.17088E+07 5.28480E+05  8808.0      367.00      1.0048    


end timestep

