                                  MODFLOW-2005     
      U.S. GEOLOGICAL SURVEY MODULAR FINITE-DIFFERENCE GROUND-WATER FLOW MODEL
                       VERSION 1.6.01 3/4/2009, with FMP2

 LIST FILE: p04_mf.list
                         UNIT    2

 OPENING p04_mf.dis
 FILE TYPE:DIS   UNIT   11   STATUS:OLD    
 FORMAT:FORMATTED              ACCESS:SEQUENTIAL          

 OPENING p04_mf.bas
 FILE TYPE:BAS6   UNIT   13   STATUS:OLD    
 FORMAT:FORMATTED              ACCESS:SEQUENTIAL          

 OPENING p04_mf.lpf
 FILE TYPE:LPF   UNIT   15   STATUS:OLD    
 FORMAT:FORMATTED              ACCESS:SEQUENTIAL          

 OPENING p04_mf.wel
 FILE TYPE:WEL   UNIT   20   STATUS:OLD    
 FORMAT:FORMATTED              ACCESS:SEQUENTIAL          

 OPENING p04_mf.pcg
 FILE TYPE:PCG   UNIT   27   STATUS:OLD    
 FORMAT:FORMATTED              ACCESS:SEQUENTIAL          

 OPENING p04_mf.lmt6
 FILE TYPE:LMT6   UNIT   30   STATUS:OLD    
 FORMAT:FORMATTED              ACCESS:SEQUENTIAL          

 BAS -- BASIC PACKAGE, VERSION 7, 5/2/2005 INPUT READ FROM UNIT   13

 DISCRETIZATION INPUT DATA READ FROM UNIT   11
 # DIS package for MODFLOW-2005 generated by Flopy 3.9.1
    1 LAYERS       100 ROWS       100 COLUMNS
    1 STRESS PERIOD(S) IN SIMULATION
 MODEL TIME UNIT IS DAYS
 MODEL LENGTH UNIT IS METERS
  Confining bed flag for each layer:
   0

                     DELR =   10.0000    

                     DELC =   10.0000    

 TOP ELEVATION OF LAYER 1 =   0.00000    

   MODEL LAYER BOTTOM EL. =  -1.00000     FOR LAYER   1


 STRESS PERIOD     LENGTH       TIME STEPS     MULTIPLIER FOR DELT    SS FLAG
 ----------------------------------------------------------------------------
        1         1000.000          1                    1.000         SS

 STEADY-STATE SIMULATION



 
 # BAS6 package for MODFLOW-2005 generated by Flopy 3.9.1                        
 THE FREE FORMAT OPTION HAS BEEN SELECTED



                     BOUNDARY ARRAY FOR LAYER   1
 READING ON UNIT   13 WITH FORMAT: (100I10)            

 AQUIFER HEAD WILL BE SET TO  -999.99     AT ALL NO-FLOW NODES (IBOUND=0).



                       INITIAL HEAD FOR LAYER   1
 READING ON UNIT   13 WITH FORMAT: (100E15.6)          

 DEFAULT OUTPUT CONTROL
 THE FOLLOWING OUTPUT COMES AT THE END OF EACH STRESS PERIOD:
 TOTAL VOLUMETRIC BUDGET
           HEAD

 LPF -- LAYER-PROPERTY FLOW PACKAGE, VERSION 7, 5/2/2005
         INPUT READ FROM UNIT   15
 # LPF package for MODFLOW-2005 generated by Flopy 3.9.1
 HEAD AT CELLS THAT CONVERT TO DRY= -1.00000E+30
 No named parameters

   LAYER FLAGS:
 LAYER       LAYTYP        LAYAVG         CHANI        LAYVKA        LAYWET
 ---------------------------------------------------------------------------
    1             0             0     1.000E+00             0             0

   INTERPRETATION OF LAYER FLAGS:
                        INTERBLOCK     HORIZONTAL    DATA IN
         LAYER TYPE   TRANSMISSIVITY   ANISOTROPY   ARRAY VKA   WETTABILITY
 LAYER      (LAYTYP)      (LAYAVG)       (CHANI)      (LAYVKA)      (LAYWET)
 ---------------------------------------------------------------------------
    1      CONFINED      HARMONIC     1.000E+00    VERTICAL K  NON-WETTABLE

 WETTING CAPABILITY IS NOT ACTIVE IN ANY LAYER

    HYD. COND. ALONG ROWS =   1.00000     FOR LAYER   1

      VERTICAL HYD. COND. =   1.00000     FOR LAYER   1

 WEL -- WELL PACKAGE, VERSION 7, 5/2/2005 INPUT READ FROM UNIT   20
 # WEL package for MODFLOW-2005 generated by Flopy 3.9.1
 No named parameters
 MAXIMUM OF      1 ACTIVE WELLS AT ONE TIME


     0 Well parameters

 PCG -- CONJUGATE-GRADIENT SOLUTION PACKAGE, VERSION 7, 5/2/2005
 # PCG package for MODFLOW-2005 generated by Flopy 3.9.1
 MAXIMUM OF     50 CALLS OF SOLUTION ROUTINE
 MAXIMUM OF     30 INTERNAL ITERATIONS PER CALL TO SOLUTION ROUTINE
 MATRIX PRECONDITIONING TYPE :    1



                                    SOLUTION BY THE CONJUGATE-GRADIENT METHOD
                                   -------------------------------------------
                    MAXIMUM NUMBER OF CALLS TO PCG ROUTINE =       50
                        MAXIMUM ITERATIONS PER CALL TO PCG =       30
                               MATRIX PRECONDITIONING TYPE =        1
        RELAXATION FACTOR (ONLY USED WITH PRECOND. TYPE 1) =    0.10000E+01
 PARAMETER OF POLYNOMIAL PRECOND. = 2 (2) OR IS CALCULATED :        0
                         HEAD CHANGE CRITERION FOR CLOSURE =    0.10000E-04
                     RESIDUAL CHANGE CRITERION FOR CLOSURE =    0.10000E-04
            PCG HEAD AND RESIDUAL CHANGE PRINTOUT INTERVAL =      999
     PRINTING FROM SOLVER IS LIMITED(1) OR SUPPRESSED (>1) =        3
                            STEADY-STATE DAMPING PARAMETER =    0.10000E+01
                               TRANSIENT DAMPING PARAMETER =    0.10000E+01
1
                            STRESS PERIOD NO.    1, LENGTH =   1000.000    
                            -----------------------------------------------

                              NUMBER OF TIME STEPS =     1

                               MULTIPLIER FOR DELT =     1.000

                            INITIAL TIME STEP SIZE =   1000.000    

 WELL NO.  LAYER   ROW   COL   STRESS RATE         
 --------------------------------------------------
      1      1     80     21      0.1000E-01

      1 WELL 
 
 SOLVING FOR HEAD 


 ***Link-MT3DMS Package v7***
 OPENING LINK-MT3DMS OUTPUT FILE: mt3d_link.ftl                                                                                                                                                                                           
 ON UNIT NUMBER:    54
 FILE TYPE: UNFORMATTED
 HEADER OPTION: EXTENDED
 ***Link-MT3DMS Package v7***


 SAVING SATURATED THICKNESS AND FLOW TERMS ON UNIT   54 FOR MT3DMS
 BY THE LINK-MT3DMS PACKAGE V7 AT TIME STEP    1, STRESS PERIOD    1

1
              HEAD IN LAYER   1 AT END OF TIME STEP   1 IN STRESS PERIOD    1
  ---------------------------------------------------------------------------

            1           2           3           4           5           6           7           8           9          10
           11          12          13          14          15          16          17          18          19          20
           21          22          23          24          25          26          27          28          29          30
           31          32          33          34          35          36          37          38          39          40
           41          42          43          44          45          46          47          48          49          50
           51          52          53          54          55          56          57          58          59          60
           61          62          63          64          65          66          67          68          69          70
           71          72          73          74          75          76          77          78          79          80
           81          82          83          84          85          86          87          88          89          90
           91          92          93          94          95          96          97          98          99         100
 ........................................................................................................................
   1    97.11       96.12       95.13       94.14       93.15       92.16       91.17       90.18       89.19       88.20    
        87.21       86.22       85.23       84.24       83.25       82.26       81.27       80.28       79.29       78.31    
        77.32       76.33       75.34       74.35       73.36       72.37       71.38       70.39       69.40       68.41    
        67.42       66.43       65.44       64.45       63.46       62.47       61.48       60.49       59.50       58.51    
        57.52       56.53       55.54       54.55       53.56       52.57       51.58       50.59       49.60       48.61    
        47.62       46.63       45.64       44.65       43.66       42.67       41.68       40.69       39.70       38.71    
        37.72       36.73       35.74       34.75       33.76       32.77       31.78       30.79       29.80       28.81    
        27.82       26.83       25.84       24.85       23.86       22.87       21.88       20.89       19.90       18.91    
        17.92       16.93       15.94       14.95       13.96       12.97       11.98       10.99       9.998       9.009    
        8.019       7.029       6.039       5.049       4.059       3.069       2.079       1.089      9.8995E-02 -0.8910    
   2    98.10       97.11       96.12       95.13       94.14       93.15       92.16       91.17       90.18       89.19    
        88.20       87.21       86.22       85.23       84.24       83.25       82.26       81.27       80.28       79.29    
        78.31       77.32       76.33       75.34       74.35       73.36       72.37       71.38       70.39       69.40    
        68.41       67.42       66.43       65.44       64.45       63.46       62.47       61.48       60.49       59.50    
        58.51       57.52       56.53       55.54       54.55       53.56       52.57       51.58       50.59       49.60    
        48.61       47.62       46.63       45.64       44.65       43.66       42.67       41.68       40.69       39.70    
        38.71       37.72       36.73       35.74       34.75       33.76       32.77       31.78       30.79       29.80    
        28.81       27.82       26.83       25.84       24.85       23.86       22.87       21.88       20.89       19.90    
        18.91       17.92       16.93       15.94       14.95       13.96       12.97       11.98       10.99       9.998    
        9.009       8.019       7.029       6.039       5.049       4.059       3.069       2.079       1.089      9.8995E-02
   3    99.09       98.10       97.11       96.12       95.13       94.14       93.15       92.16       91.17       90.18    
        89.19       88.20       87.21       86.22       85.23       84.24       83.25       82.26       81.27       80.28    
        79.29       78.31       77.32       76.33       75.34       74.35       73.36       72.37       71.38       70.39    
        69.40       68.41       67.42       66.43       65.44       64.45       63.46       62.47       61.48       60.49    
        59.50       58.51       57.52       56.53       55.54       54.55       53.56       52.57       51.58       50.59    
        49.60       48.61       47.62       46.63       45.64       44.65       43.66       42.67       41.68       40.69    
        39.70       38.71       37.72       36.73       35.74       34.75       33.76       32.77       31.78       30.79    
        29.80       28.81       27.82       26.83       25.84       24.85       23.86       22.87       21.88       20.89    
        19.90       18.91       17.92       16.93       15.94       14.95       13.96       12.97       11.98       10.99    
        9.998       9.009       8.019       7.029       6.039       5.049       4.059       3.069       2.079       1.089    
   4    100.1       99.09       98.10       97.11       96.12       95.13       94.14       93.15       92.16       91.17    
        90.18       89.19       88.20       87.21       86.22       85.23       84.24       83.25       82.26       81.27    
        80.28       79.29       78.31       77.32       76.33       75.34       74.35       73.36       72.37       71.38    
        70.39       69.40       68.41       67.42       66.43       65.44       64.45       63.46       62.47       61.48    
        60.49       59.50       58.51       57.52       56.53       55.54       54.55       53.56       52.57       51.58    
        50.59       49.60       48.61       47.62       46.63       45.64       44.65       43.66       42.67       41.68    
        40.69       39.70       38.71       37.72       36.73       35.74       34.75       33.76       32.77       31.78    
        30.79       29.80       28.81       27.82       26.83       25.84       24.85       23.86       22.87       21.88    
        20.89       19.90       18.91       17.92       16.93       15.94       14.95       13.96       12.97       11.98    
        10.99       9.998       9.009       8.019       7.029       6.039       5.049       4.059       3.069       2.079    
   5    101.1       100.1       99.09       98.10       97.11       96.12       95.13       94.14       93.15       92.16    
        91.17       90.18       89.19       88.20       87.21       86.22       85.23       84.24       83.25       82.26    
        81.27       80.28       79.29       78.31       77.32       76.33       75.34       74.35       73.36       72.37    
        71.38       70.39       69.40       68.41       67.42       66.43       65.44       64.45       63.46       62.47    
        61.48       60.49       59.50       58.51       57.52       56.53       55.54       54.55       53.56       52.57    
        51.58       50.59       49.60       48.61       47.62       46.63       45.64       44.65       43.66       42.67    
        41.68       40.69       39.70       38.71       37.72       36.73       35.74       34.75       33.76       32.77    
        31.78       30.79       29.80       28.81       27.82       26.83       25.84       24.85       23.86       22.87    
        21.88       20.89       19.90       18.91       17.92       16.93       15.94       14.95       13.96       12.97    
        11.98       10.99       9.998       9.009       8.019       7.029       6.039       5.049       4.059       3.069    
   6    102.1       101.1       100.1       99.09       98.10       97.11       96.12       95.13       94.14       93.15    
        92.16       91.17       90.18       89.19       88.20       87.21       86.22       85.23       84.24       83.25    
        82.26       81.27       80.28       79.29       78.31       77.32       76.33       75.34       74.35       73.36    
        72.37       71.38       70.39       69.40       68.41       67.42       66.43       65.44       64.45       63.46    
        62.47       61.48       60.49       59.50       58.51       57.52       56.53       55.54       54.55       53.56    
        52.57       51.58       50.59       49.60       48.61       47.62       46.63       45.64       44.65       43.66    
        42.67       41.68       40.69       39.70       38.71       37.72       36.73       35.74       34.75       33.76    
        32.77       31.78       30.79       29.80       28.81       27.82       26.83       25.84       24.85       23.86    
        22.87       21.88       20.89       19.90       18.91       17.92       16.93       15.94       14.95       13.96    
        12.97       11.98       10.99       9.998       9.009       8.019       7.029       6.039       5.049       4.059    
   7    103.1       102.1       101.1       100.1       99.09       98.10       97.11       96.12       95.13       94.14    
        93.15       92.16       91.17       90.18       89.19       88.20       87.21       86.22       85.23       84.24    
        83.25       82.26       81.27       80.28       79.29       78.31       77.32       76.33       75.34       74.35    
        73.36       72.37       71.38       70.39       69.40       68.41       67.42       66.43       65.44       64.45    
        63.46       62.47       61.48       60.49       59.50       58.51       57.52       56.53       55.54       54.55    
        53.56       52.57       51.58       50.59       49.60       48.61       47.62       46.63       45.64       44.65    
        43.66       42.67       41.68       40.69       39.70       38.71       37.72       36.73       35.74       34.75    
        33.76       32.77       31.78       30.79       29.80       28.81       27.82       26.83       25.84       24.85    
        23.86       22.87       21.88       20.89       19.90       18.91       17.92       16.93       15.94       14.95    
        13.96       12.97       11.98       10.99       9.998       9.009       8.019       7.029       6.039       5.049    
   8    104.0       103.1       102.1       101.1       100.1       99.09       98.10       97.11       96.12       95.13    
        94.14       93.15       92.16       91.17       90.18       89.19       88.20       87.21       86.22       85.23    
        84.24       83.25       82.26       81.27       80.28       79.29       78.31       77.32       76.33       75.34    
        74.35       73.36       72.37       71.38       70.39       69.40       68.41       67.42       66.43       65.44    
        64.45       63.46       62.47       61.48       60.49       59.50       58.51       57.52       56.53       55.54    
        54.55       53.56       52.57       51.58       50.59       49.60       48.61       47.62       46.63       45.64    
        44.65       43.66       42.67       41.68       40.69       39.70       38.71       37.72       36.73       35.74    
        34.75       33.76       32.77       31.78       30.79       29.80       28.81       27.82       26.83       25.84    
        24.85       23.86       22.87       21.88       20.89       19.90       18.91       17.92       16.93       15.94    
        14.95       13.96       12.97       11.98       10.99       9.998       9.009       8.019       7.029       6.039    
   9    105.0       104.0       103.1       102.1       101.1       100.1       99.09       98.10       97.11       96.12    
        95.13       94.14       93.15       92.16       91.17       90.18       89.19       88.20       87.21       86.22    
        85.23       84.24       83.25       82.26       81.27       80.28       79.30       78.31       77.32       76.33    
        75.34       74.35       73.36       72.37       71.38       70.39       69.40       68.41       67.42       66.43    
        65.44       64.45       63.46       62.47       61.48       60.49       59.50       58.51       57.52       56.53    
        55.54       54.55       53.56       52.57       51.58       50.59       49.60       48.61       47.62       46.63    
        45.64       44.65       43.66       42.67       41.68       40.69       39.70       38.71       37.72       36.73    
        35.74       34.75       33.76       32.77       31.78       30.79       29.80       28.81       27.82       26.83    
        25.84       24.85       23.86       22.87       21.88       20.89       19.90       18.91       17.92       16.93    
        15.94       14.95       13.96       12.97       11.98       10.99       9.998       9.009       8.019       7.029    
  10    106.0       105.0       104.0       103.1       102.1       101.1       100.1       99.09       98.10       97.11    
        96.12       95.13       94.14       93.15       92.16       91.17       90.18       89.19       88.20       87.21    
        86.22       85.23       84.24       83.25       82.26       81.27       80.28       79.30       78.31       77.32    
        76.33       75.34       74.35       73.36       72.37       71.38       70.39       69.40       68.41       67.42    
        66.43       65.44       64.45       63.46       62.47       61.48       60.49       59.50       58.51       57.52    
        56.53       55.54       54.55       53.56       52.57       51.58       50.59       49.60       48.61       47.62    
        46.63       45.64       44.65       43.66       42.67       41.68       40.69       39.70       38.71       37.72    
        36.73       35.74       34.75       33.76       32.77       31.78       30.79       29.80       28.81       27.82    
        26.83       25.84       24.85       23.86       22.87       21.88       20.89       19.90       18.91       17.92    
        16.93       15.94       14.95       13.96       12.97       11.98       10.99       9.998       9.009       8.019    
  11    107.0       106.0       105.0       104.0       103.1       102.1       101.1       100.1       99.09       98.10    
        97.11       96.12       95.13       94.14       93.15       92.16       91.17       90.18       89.19       88.20    
        87.21       86.22       85.23       84.24       83.25       82.26       81.27       80.28       79.30       78.31    
        77.32       76.33       75.34       74.35       73.36       72.37       71.38       70.39       69.40       68.41    
        67.42       66.43       65.44       64.45       63.46       62.47       61.48       60.49       59.50       58.51    
        57.52       56.53       55.54       54.55       53.56       52.57       51.58       50.59       49.60       48.61    
        47.62       46.63       45.64       44.65       43.66       42.67       41.68       40.69       39.70       38.71    
        37.72       36.73       35.74       34.75       33.76       32.77       31.78       30.79       29.80       28.81    
        27.82       26.83       25.84       24.85       23.86       22.87       21.88       20.89       19.90       18.91    
        17.92       16.93       15.94       14.95       13.96       12.97       11.98       10.99       9.998       9.009    
  12    108.0       107.0       106.0       105.0       104.0       103.1       102.1       101.1       100.1       99.09    
        98.10       97.11       96.12       95.13       94.14       93.15       92.16       91.17       90.18       89.19    
        88.20       87.21       86.22       85.23       84.24       83.25       82.26       81.27       80.28       79.30    
        78.31       77.32       76.33       75.34       74.35       73.36       72.37       71.38       70.39       69.40    
        68.41       67.42       66.43       65.44       64.45       63.46       62.47       61.48       60.49       59.50    
        58.51       57.52       56.53       55.54       54.55       53.56       52.57       51.58       50.59       49.60    
        48.61       47.62       46.63       45.64       44.65       43.66       42.67       41.68       40.69       39.70    
        38.71       37.72       36.73       35.74       34.75       33.76       32.77       31.78       30.79       29.80    
        28.81       27.82       26.83       25.84       24.85       23.86       22.87       21.88       20.89       19.90    
        18.91       17.92       16.93       15.94       14.95       13.96       12.97       11.98       10.99       9.998    
  13    109.0       108.0       107.0       106.0       105.0       104.0       103.1       102.1       101.1       100.1    
        99.09       98.10       97.11       96.12       95.13       94.14       93.15       92.16       91.17       90.18    
        89.19       88.20       87.21       86.22       85.23       84.24       83.25       82.26       81.27       80.28    
        79.30       78.31       77.32       76.33       75.34       74.35       73.36       72.37       71.38       70.39    
        69.40       68.41       67.42       66.43       65.44       64.45       63.46       62.47       61.48       60.49    
        59.50       58.51       57.52       56.53       55.54       54.55       53.56       52.57       51.58       50.59    
        49.60       48.61       47.62       46.63       45.64       44.65       43.66       42.67       41.68       40.69    
        39.70       38.71       37.72       36.73       35.74       34.75       33.76       32.77       31.78       30.79    
        29.80       28.81       27.82       26.83       25.84       24.85       23.86       22.87       21.88       20.89    
        19.90       18.91       17.92       16.93       15.94       14.95       13.96       12.97       11.98       10.99    
  14    110.0       109.0       108.0       107.0       106.0       105.0       104.0       103.1       102.1       101.1    
        100.1       99.09       98.10       97.11       96.12       95.13       94.14       93.15       92.16       91.17    
        90.18       89.19       88.20       87.21       86.22       85.23       84.24       83.25       82.26       81.27    
        80.28       79.30       78.31       77.32       76.33       75.34       74.35       73.36       72.37       71.38    
        70.39       69.40       68.41       67.42       66.43       65.44       64.45       63.46       62.47       61.48    
        60.49       59.50       58.51       57.52       56.53       55.54       54.55       53.56       52.57       51.58    
        50.59       49.60       48.61       47.62       46.63       45.64       44.65       43.66       42.67       41.68    
        40.69       39.70       38.71       37.72       36.73       35.74       34.75       33.76       32.77       31.78    
        30.79       29.80       28.81       27.82       26.83       25.84       24.85       23.86       22.87       21.88    
        20.89       19.90       18.91       17.92       16.93       15.94       14.95       13.96       12.97       11.98    
  15    111.0       110.0       109.0       108.0       107.0       106.0       105.0       104.0       103.1       102.1    
        101.1       100.1       99.09       98.10       97.11       96.12       95.13       94.14       93.15       92.16    
        91.17       90.18       89.19       88.20       87.21       86.22       85.23       84.24       83.25       82.26    
        81.27       80.29       79.30       78.31       77.32       76.33       75.34       74.35       73.36       72.37    
        71.38       70.39       69.40       68.41       67.42       66.43       65.44       64.45       63.46       62.47    
        61.48       60.49       59.50       58.51       57.52       56.53       55.54       54.55       53.56       52.57    
        51.58       50.59       49.60       48.61       47.62       46.63       45.64       44.65       43.66       42.67    
        41.68       40.69       39.70       38.71       37.72       36.73       35.74       34.75       33.76       32.77    
        31.78       30.79       29.80       28.81       27.82       26.83       25.84       24.85       23.86       22.87    
        21.88       20.89       19.90       18.91       17.92       16.93       15.94       14.95       13.96       12.97    
  16    112.0       111.0       110.0       109.0       108.0       107.0       106.0       105.0       104.0       103.1    
        102.1       101.1       100.1       99.09       98.10       97.11       96.12       95.13       94.14       93.15    
        92.16       91.17       90.18       89.19       88.20       87.21       86.22       85.23       84.24       83.25    
        82.26       81.27       80.29       79.30       78.31       77.32       76.33       75.34       74.35       73.36    
        72.37       71.38       70.39       69.40       68.41       67.42       66.43       65.44       64.45       63.46    
        62.47       61.48       60.49       59.50       58.51       57.52       56.53       55.54       54.55       53.56    
        52.57       51.58       50.59       49.60       48.61       47.62       46.63       45.64       44.65       43.66    
        42.67       41.68       40.69       39.70       38.71       37.72       36.73       35.74       34.75       33.76    
        32.77       31.78       30.79       29.80       28.81       27.82       26.83       25.84       24.85       23.86    
        22.87       21.88       20.89       19.90       18.91       17.92       16.93       15.94       14.95       13.96    
  17    113.0       112.0       111.0       110.0       109.0       108.0       107.0       106.0       105.0       104.0    
        103.1       102.1       101.1       100.1       99.09       98.10       97.11       96.12       95.13       94.14    
        93.15       92.16       91.17       90.18       89.19       88.20       87.21       86.22       85.23       84.24    
        83.25       82.26       81.27       80.29       79.30       78.31       77.32       76.33       75.34       74.35    
        73.36       72.37       71.38       70.39       69.40       68.41       67.42       66.43       65.44       64.45    
        63.46       62.47       61.48       60.49       59.50       58.51       57.52       56.53       55.54       54.55    
        53.56       52.57       51.58       50.59       49.60       48.61       47.62       46.63       45.64       44.65    
        43.66       42.67       41.68       40.69       39.70       38.71       37.72       36.73       35.74       34.75    
        33.76       32.77       31.78       30.79       29.80       28.81       27.82       26.83       25.84       24.85    
        23.86       22.87       21.88       20.89       19.90       18.91       17.92       16.93       15.94       14.95    
  18    113.9       113.0       112.0       111.0       110.0       109.0       108.0       107.0       106.0       105.0    
        104.0       103.1       102.1       101.1       100.1       99.09       98.10       97.11       96.12       95.13    
        94.14       93.15       92.16       91.17       90.18       89.19       88.20       87.21       86.22       85.23    
        84.24       83.25       82.26       81.27       80.29       79.30       78.31       77.32       76.33       75.34    
        74.35       73.36       72.37       71.38       70.39       69.40       68.41       67.42       66.43       65.44    
        64.45       63.46       62.47       61.48       60.49       59.50       58.51       57.52       56.53       55.54    
        54.55       53.56       52.57       51.58       50.59       49.60       48.61       47.62       46.63       45.64    
        44.65       43.66       42.67       41.68       40.69       39.70       38.71       37.72       36.73       35.74    
        34.75       33.76       32.77       31.78       30.79       29.80       28.81       27.82       26.83       25.84    
        24.85       23.86       22.87       21.88       20.89       19.90       18.91       17.92       16.93       15.94    
  19    114.9       113.9       113.0       112.0       111.0       110.0       109.0       108.0       107.0       106.0    
        105.0       104.0       103.1       102.1       101.1       100.1       99.09       98.10       97.11       96.12    
        95.13       94.14       93.15       92.16       91.17       90.18       89.19       88.20       87.21       86.22    
        85.23       84.24       83.25       82.26       81.27       80.29       79.30       78.31       77.32       76.33    
        75.34       74.35       73.36       72.37       71.38       70.39       69.40       68.41       67.42       66.43    
        65.44       64.45       63.46       62.47       61.48       60.49       59.50       58.51       57.52       56.53    
        55.54       54.55       53.56       52.57       51.58       50.59       49.60       48.61       47.62       46.63    
        45.64       44.65       43.66       42.67       41.68       40.69       39.70       38.71       37.72       36.73    
        35.74       34.75       33.76       32.77       31.78       30.79       29.80       28.81       27.82       26.83    
        25.84       24.85       23.86       22.87       21.88       20.89       19.90       18.91       17.92       16.93    
  20    115.9       114.9       113.9       113.0       112.0       111.0       110.0       109.0       108.0       107.0    
        106.0       105.0       104.0       103.1       102.1       101.1       100.1       99.09       98.10       97.11    
        96.12       95.13       94.14       93.15       92.16       91.17       90.18       89.19       88.20       87.21    
        86.22       85.23       84.24       83.25       82.26       81.28       80.29       79.30       78.31       77.32    
        76.33       75.34       74.35       73.36       72.37       71.38       70.39       69.40       68.41       67.42    
        66.43       65.44       64.45       63.46       62.47       61.48       60.49       59.50       58.51       57.52    
        56.53       55.54       54.55       53.56       52.57       51.58       50.59       49.60       48.61       47.62    
        46.63       45.64       44.65       43.66       42.67       41.68       40.69       39.70       38.71       37.72    
        36.73       35.74       34.75       33.76       32.77       31.78       30.79       29.80       28.81       27.82    
        26.83       25.84       24.85       23.86       22.87       21.88       20.89       19.90       18.91       17.92    
  21    116.9       115.9       114.9       113.9       113.0       112.0       111.0       110.0       109.0       108.0    
        107.0       106.0       105.0       104.0       103.1       102.1       101.1       100.1       99.09       98.10    
        97.11       96.12       95.13       94.14       93.15       92.16       91.17       90.18       89.19       88.20    
        87.21       86.22       85.23       84.24       83.25       82.26       81.28       80.29       79.30       78.31    
        77.32       76.33       75.34       74.35       73.36       72.37       71.38       70.39       69.40       68.41    
        67.42       66.43       65.44       64.45       63.46       62.47       61.48       60.49       59.50       58.51    
        57.52       56.53       55.54       54.55       53.56       52.57       51.58       50.59       49.60       48.61    
        47.62       46.63       45.64       44.65       43.66       42.67       41.68       40.69       39.70       38.71    
        37.72       36.73       35.74       34.75       33.76       32.77       31.78       30.79       29.80       28.81    
        27.82       26.83       25.84       24.85       23.86       22.87       21.88       20.89       19.90       18.91    
  22    117.9       116.9       115.9       114.9       113.9       113.0       112.0       111.0       110.0       109.0    
        108.0       107.0       106.0       105.0       104.0       103.1       102.1       101.1       100.1       99.09    
        98.10       97.11       96.12       95.13       94.14       93.15       92.16       91.17       90.18       89.19    
        88.20       87.21       86.22       85.23       84.24       83.25       82.26       81.28       80.29       79.30    
        78.31       77.32       76.33       75.34       74.35       73.36       72.37       71.38       70.39       69.40    
        68.41       67.42       66.43       65.44       64.45       63.46       62.47       61.48       60.49       59.50    
        58.51       57.52       56.53       55.54       54.55       53.56       52.57       51.58       50.59       49.60    
        48.61       47.62       46.63       45.64       44.65       43.66       42.67       41.68       40.69       39.70    
        38.71       37.72       36.73       35.74       34.75       33.76       32.77       31.78       30.79       29.80    
        28.81       27.82       26.83       25.84       24.85       23.86       22.87       21.88       20.89       19.90    
  23    118.9       117.9       116.9       115.9       114.9       113.9       113.0       112.0       111.0       110.0    
        109.0       108.0       107.0       106.0       105.0       104.0       103.1       102.1       101.1       100.1    
        99.09       98.10       97.11       96.12       95.13       94.14       93.15       92.16       91.17       90.18    
        89.19       88.20       87.21       86.22       85.23       84.24       83.25       82.26       81.28       80.29    
        79.30       78.31       77.32       76.33       75.34       74.35       73.36       72.37       71.38       70.39    
        69.40       68.41       67.42       66.43       65.44       64.45       63.46       62.47       61.48       60.49    
        59.50       58.51       57.52       56.53       55.54       54.55       53.56       52.57       51.58       50.59    
        49.60       48.61       47.62       46.63       45.64       44.65       43.66       42.67       41.68       40.69    
        39.70       38.71       37.72       36.73       35.74       34.75       33.76       32.77       31.78       30.79    
        29.80       28.81       27.82       26.83       25.84       24.85       23.86       22.87       21.88       20.89    
  24    119.9       118.9       117.9       116.9       115.9       114.9       113.9       113.0       112.0       111.0    
        110.0       109.0       108.0       107.0       106.0       105.0       104.0       103.1       102.1       101.1    
        100.1       99.09       98.10       97.11       96.12       95.13       94.14       93.15       92.16       91.17    
        90.18       89.19       88.20       87.21       86.22       85.23       84.24       83.25       82.26       81.28    
        80.29       79.30       78.31       77.32       76.33       75.34       74.35       73.36       72.37       71.38    
        70.39       69.40       68.41       67.42       66.43       65.44       64.45       63.46       62.47       61.48    
        60.49       59.50       58.51       57.52       56.53       55.54       54.55       53.56       52.57       51.58    
        50.59       49.60       48.61       47.62       46.63       45.64       44.65       43.66       42.67       41.68    
        40.69       39.70       38.71       37.72       36.73       35.74       34.75       33.76       32.77       31.78    
        30.79       29.80       28.81       27.82       26.83       25.84       24.85       23.86       22.87       21.88    
  25    120.9       119.9       118.9       117.9       116.9       115.9       114.9       113.9       113.0       112.0    
        111.0       110.0       109.0       108.0       107.0       106.0       105.0       104.0       103.1       102.1    
        101.1       100.1       99.09       98.10       97.11       96.12       95.13       94.14       93.15       92.16    
        91.17       90.18       89.19       88.20       87.21       86.22       85.23       84.24       83.25       82.26    
        81.28       80.29       79.30       78.31       77.32       76.33       75.34       74.35       73.36       72.37    
        71.38       70.39       69.40       68.41       67.42       66.43       65.44       64.45       63.46       62.47    
        61.48       60.49       59.50       58.51       57.52       56.53       55.54       54.55       53.56       52.57    
        51.58       50.59       49.60       48.61       47.62       46.63       45.64       44.65       43.66       42.67    
        41.68       40.69       39.70       38.71       37.72       36.73       35.74       34.75       33.76       32.77    
        31.78       30.79       29.80       28.81       27.82       26.83       25.84       24.85       23.86       22.87    
  26    121.9       120.9       119.9       118.9       117.9       116.9       115.9       114.9       113.9       113.0    
        112.0       111.0       110.0       109.0       108.0       107.0       106.0       105.0       104.0       103.1    
        102.1       101.1       100.1       99.09       98.10       97.11       96.12       95.13       94.14       93.15    
        92.16       91.17       90.18       89.19       88.20       87.21       86.22       85.23       84.24       83.25    
        82.27       81.28       80.29       79.30       78.31       77.32       76.33       75.34       74.35       73.36    
        72.37       71.38       70.39       69.40       68.41       67.42       66.43       65.44       64.45       63.46    
        62.47       61.48       60.49       59.50       58.51       57.52       56.53       55.54       54.55       53.56    
        52.57       51.58       50.59       49.60       48.61       47.62       46.63       45.64       44.65       43.66    
        42.67       41.68       40.69       39.70       38.71       37.72       36.73       35.74       34.75       33.76    
        32.77       31.78       30.79       29.80       28.81       27.82       26.83       25.84       24.85       23.86    
  27    122.9       121.9       120.9       119.9       118.9       117.9       116.9       115.9       114.9       113.9    
        113.0       112.0       111.0       110.0       109.0       108.0       107.0       106.0       105.0       104.0    
        103.1       102.1       101.1       100.1       99.09       98.10       97.11       96.12       95.13       94.14    
        93.15       92.16       91.17       90.18       89.19       88.20       87.21       86.22       85.23       84.24    
        83.25       82.27       81.28       80.29       79.30       78.31       77.32       76.33       75.34       74.35    
        73.36       72.37       71.38       70.39       69.40       68.41       67.42       66.43       65.44       64.45    
        63.46       62.47       61.48       60.49       59.50       58.51       57.52       56.53       55.54       54.55    
        53.56       52.57       51.58       50.59       49.60       48.61       47.62       46.63       45.64       44.65    
        43.66       42.67       41.68       40.69       39.70       38.71       37.72       36.73       35.74       34.75    
        33.76       32.77       31.78       30.79       29.80       28.81       27.82       26.83       25.84       24.85    
  28    123.8       122.9       121.9       120.9       119.9       118.9       117.9       116.9       115.9       114.9    
        113.9       113.0       112.0       111.0       110.0       109.0       108.0       107.0       106.0       105.0    
        104.0       103.1       102.1       101.1       100.1       99.09       98.10       97.11       96.12       95.13    
        94.14       93.15       92.16       91.17       90.18       89.19       88.20       87.21       86.22       85.23    
        84.24       83.25       82.27       81.28       80.29       79.30       78.31       77.32       76.33       75.34    
        74.35       73.36       72.37       71.38       70.39       69.40       68.41       67.42       66.43       65.44    
        64.45       63.46       62.47       61.48       60.49       59.50       58.51       57.52       56.53       55.54    
        54.55       53.56       52.57       51.58       50.59       49.60       48.61       47.62       46.63       45.64    
        44.65       43.66       42.67       41.68       40.69       39.70       38.71       37.72       36.73       35.74    
        34.75       33.76       32.77       31.78       30.79       29.80       28.81       27.82       26.83       25.84    
  29    124.8       123.8       122.9       121.9       120.9       119.9       118.9       117.9       116.9       115.9    
        114.9       113.9       113.0       112.0       111.0       110.0       109.0       108.0       107.0       106.0    
        105.0       104.0       103.1       102.1       101.1       100.1       99.09       98.10       97.11       96.12    
        95.13       94.14       93.15       92.16       91.17       90.18       89.19       88.20       87.21       86.22    
        85.23       84.24       83.25       82.27       81.28       80.29       79.30       78.31       77.32       76.33    
        75.34       74.35       73.36       72.37       71.38       70.39       69.40       68.41       67.42       66.43    
        65.44       64.45       63.46       62.47       61.48       60.49       59.50       58.51       57.52       56.53    
        55.54       54.55       53.56       52.57       51.58       50.59       49.60       48.61       47.62       46.63    
        45.64       44.65       43.66       42.67       41.68       40.69       39.70       38.71       37.72       36.73    
        35.74       34.75       33.76       32.77       31.78       30.79       29.80       28.81       27.82       26.83    
  30    125.8       124.8       123.8       122.9       121.9       120.9       119.9       118.9       117.9       116.9    
        115.9       114.9       113.9       113.0       112.0       111.0       110.0       109.0       108.0       107.0    
        106.0       105.0       104.0       103.1       102.1       101.1       100.1       99.09       98.10       97.11    
        96.12       95.13       94.14       93.15       92.16       91.17       90.18       89.19       88.20       87.21    
        86.22       85.23       84.24       83.25       82.27       81.28       80.29       79.30       78.31       77.32    
        76.33       75.34       74.35       73.36       72.37       71.38       70.39       69.40       68.41       67.42    
        66.43       65.44       64.45       63.46       62.47       61.48       60.49       59.50       58.51       57.52    
        56.53       55.54       54.55       53.56       52.57       51.58       50.59       49.60       48.61       47.62    
        46.63       45.64       44.65       43.66       42.67       41.68       40.69       39.70       38.71       37.72    
        36.73       35.74       34.75       33.76       32.77       31.78       30.79       29.80       28.81       27.82    
  31    126.8       125.8       124.8       123.8       122.9       121.9       120.9       119.9       118.9       117.9    
        116.9       115.9       114.9       113.9       113.0       112.0       111.0       110.0       109.0       108.0    
        107.0       106.0       105.0       104.0       103.1       102.1       101.1       100.1       99.09       98.10    
        97.11       96.12       95.13       94.14       93.15       92.16       91.17       90.18       89.19       88.20    
        87.21       86.22       85.23       84.24       83.26       82.27       81.28       80.29       79.30       78.31    
        77.32       76.33       75.34       74.35       73.36       72.37       71.38       70.39       69.40       68.41    
        67.42       66.43       65.44       64.45       63.46       62.47       61.48       60.49       59.50       58.51    
        57.52       56.53       55.54       54.55       53.56       52.57       51.58       50.59       49.60       48.61    
        47.62       46.63       45.64       44.65       43.66       42.67       41.68       40.69       39.70       38.71    
        37.72       36.73       35.74       34.75       33.76       32.77       31.78       30.79       29.80       28.81    
  32    127.8       126.8       125.8       124.8       123.8       122.9       121.9       120.9       119.9       118.9    
        117.9       116.9       115.9       114.9       113.9       113.0       112.0       111.0       110.0       109.0    
        108.0       107.0       106.0       105.0       104.0       103.1       102.1       101.1       100.1       99.09    
        98.10       97.11       96.12       95.13       94.14       93.15       92.16       91.17       90.18       89.19    
        88.20       87.21       86.22       85.23       84.24       83.26       82.27       81.28       80.29       79.30    
        78.31       77.32       76.33       75.34       74.35       73.36       72.37       71.38       70.39       69.40    
        68.41       67.42       66.43       65.44       64.45       63.46       62.47       61.48       60.49       59.50    
        58.51       57.52       56.53       55.54       54.55       53.56       52.57       51.58       50.59       49.60    
        48.61       47.62       46.63       45.64       44.65       43.66       42.67       41.68       40.69       39.70    
        38.71       37.72       36.73       35.74       34.75       33.76       32.77       31.78       30.79       29.80    
  33    128.8       127.8       126.8       125.8       124.8       123.8       122.9       121.9       120.9       119.9    
        118.9       117.9       116.9       115.9       114.9       113.9       113.0       112.0       111.0       110.0    
        109.0       108.0       107.0       106.0       105.0       104.0       103.1       102.1       101.1       100.1    
        99.09       98.10       97.11       96.12       95.13       94.14       93.15       92.16       91.17       90.18    
        89.19       88.20       87.21       86.22       85.23       84.24       83.26       82.27       81.28       80.29    
        79.30       78.31       77.32       76.33       75.34       74.35       73.36       72.37       71.38       70.39    
        69.40       68.41       67.42       66.43       65.44       64.45       63.46       62.47       61.48       60.49    
        59.50       58.51       57.52       56.53       55.54       54.55       53.56       52.57       51.58       50.59    
        49.60       48.61       47.62       46.63       45.64       44.65       43.66       42.67       41.68       40.69    
        39.70       38.71       37.72       36.73       35.74       34.75       33.76       32.77       31.78       30.79    
  34    129.8       128.8       127.8       126.8       125.8       124.8       123.8       122.9       121.9       120.9    
        119.9       118.9       117.9       116.9       115.9       114.9       113.9       113.0       112.0       111.0    
        110.0       109.0       108.0       107.0       106.0       105.0       104.0       103.1       102.1       101.1    
        100.1       99.09       98.10       97.11       96.12       95.13       94.14       93.15       92.16       91.17    
        90.18       89.19       88.20       87.21       86.22       85.23       84.24       83.26       82.27       81.28    
        80.29       79.30       78.31       77.32       76.33       75.34       74.35       73.36       72.37       71.38    
        70.39       69.40       68.41       67.42       66.43       65.44       64.45       63.46       62.47       61.48    
        60.49       59.50       58.51       57.52       56.53       55.54       54.55       53.56       52.57       51.58    
        50.59       49.60       48.61       47.62       46.63       45.64       44.65       43.66       42.67       41.68    
        40.69       39.70       38.71       37.72       36.73       35.74       34.75       33.76       32.77       31.78    
  35    130.8       129.8       128.8       127.8       126.8       125.8       124.8       123.8       122.9       121.9    
        120.9       119.9       118.9       117.9       116.9       115.9       114.9       113.9       113.0       112.0    
        111.0       110.0       109.0       108.0       107.0       106.0       105.0       104.0       103.1       102.1    
        101.1       100.1       99.09       98.10       97.11       96.12       95.13       94.14       93.15       92.16    
        91.17       90.18       89.19       88.20       87.21       86.22       85.23       84.24       83.26       82.27    
        81.28       80.29       79.30       78.31       77.32       76.33       75.34       74.35       73.36       72.37    
        71.38       70.39       69.40       68.41       67.42       66.43       65.44       64.45       63.46       62.47    
        61.48       60.49       59.50       58.51       57.52       56.53       55.54       54.55       53.56       52.57    
        51.58       50.59       49.60       48.61       47.62       46.63       45.64       44.65       43.66       42.67    
        41.68       40.69       39.70       38.71       37.72       36.73       35.74       34.75       33.76       32.77    
  36    131.8       130.8       129.8       128.8       127.8       126.8       125.8       124.8       123.8       122.9    
        121.9       120.9       119.9       118.9       117.9       116.9       115.9       114.9       113.9       113.0    
        112.0       111.0       110.0       109.0       108.0       107.0       106.0       105.0       104.0       103.1    
        102.1       101.1       100.1       99.09       98.10       97.11       96.12       95.13       94.14       93.15    
        92.16       91.17       90.18       89.19       88.20       87.21       86.22       85.23       84.24       83.26    
        82.27       81.28       80.29       79.30       78.31       77.32       76.33       75.34       74.35       73.36    
        72.37       71.38       70.39       69.40       68.41       67.42       66.43       65.44       64.45       63.46    
        62.47       61.48       60.49       59.50       58.51       57.52       56.53       55.54       54.55       53.56    
        52.57       51.58       50.59       49.60       48.61       47.62       46.63       45.64       44.65       43.66    
        42.67       41.68       40.69       39.70       38.71       37.72       36.73       35.74       34.75       33.76    
  37    132.8       131.8       130.8       129.8       128.8       127.8       126.8       125.8       124.8       123.8    
        122.9       121.9       120.9       119.9       118.9       117.9       116.9       115.9       114.9       113.9    
        113.0       112.0       111.0       110.0       109.0       108.0       107.0       106.0       105.0       104.0    
        103.1       102.1       101.1       100.1       99.09       98.10       97.11       96.12       95.13       94.14    
        93.15       92.16       91.17       90.18       89.19       88.20       87.21       86.22       85.23       84.25    
        83.26       82.27       81.28       80.29       79.30       78.31       77.32       76.33       75.34       74.35    
        73.36       72.37       71.38       70.39       69.40       68.41       67.42       66.43       65.44       64.45    
        63.46       62.47       61.48       60.49       59.50       58.51       57.52       56.53       55.54       54.55    
        53.56       52.57       51.58       50.59       49.60       48.61       47.62       46.63       45.64       44.65    
        43.66       42.67       41.68       40.69       39.70       38.71       37.72       36.73       35.74       34.75    
  38    133.7       132.8       131.8       130.8       129.8       128.8       127.8       126.8       125.8       124.8    
        123.8       122.9       121.9       120.9       119.9       118.9       117.9       116.9       115.9       114.9    
        113.9       113.0       112.0       111.0       110.0       109.0       108.0       107.0       106.0       105.0    
        104.0       103.1       102.1       101.1       100.1       99.09       98.10       97.11       96.12       95.13    
        94.14       93.15       92.16       91.17       90.18       89.19       88.20       87.21       86.22       85.23    
        84.25       83.26       82.27       81.28       80.29       79.30       78.31       77.32       76.33       75.34    
        74.35       73.36       72.37       71.38       70.39       69.40       68.41       67.42       66.43       65.44    
        64.45       63.46       62.47       61.48       60.49       59.50       58.51       57.52       56.53       55.54    
        54.55       53.56       52.57       51.58       50.59       49.60       48.61       47.62       46.63       45.64    
        44.65       43.66       42.67       41.68       40.69       39.70       38.71       37.72       36.73       35.74    
  39    134.7       133.7       132.8       131.8       130.8       129.8       128.8       127.8       126.8       125.8    
        124.8       123.8       122.9       121.9       120.9       119.9       118.9       117.9       116.9       115.9    
        114.9       113.9       113.0       112.0       111.0       110.0       109.0       108.0       107.0       106.0    
        105.0       104.0       103.1       102.1       101.1       100.1       99.09       98.10       97.11       96.12    
        95.13       94.14       93.15       92.16       91.17       90.18       89.19       88.20       87.21       86.22    
        85.23       84.25       83.26       82.27       81.28       80.29       79.30       78.31       77.32       76.33    
        75.34       74.35       73.36       72.37       71.38       70.39       69.40       68.41       67.42       66.43    
        65.44       64.45       63.46       62.47       61.48       60.49       59.50       58.51       57.52       56.53    
        55.54       54.55       53.56       52.57       51.58       50.59       49.60       48.61       47.62       46.63    
        45.64       44.65       43.66       42.67       41.68       40.69       39.70       38.71       37.72       36.73    
  40    135.7       134.7       133.7       132.8       131.8       130.8       129.8       128.8       127.8       126.8    
        125.8       124.8       123.8       122.9       121.9       120.9       119.9       118.9       117.9       116.9    
        115.9       114.9       113.9       113.0       112.0       111.0       110.0       109.0       108.0       107.0    
        106.0       105.0       104.0       103.1       102.1       101.1       100.1       99.09       98.10       97.11    
        96.12       95.13       94.14       93.15       92.16       91.17       90.18       89.19       88.20       87.21    
        86.22       85.23       84.25       83.26       82.27       81.28       80.29       79.30       78.31       77.32    
        76.33       75.34       74.35       73.36       72.37       71.38       70.39       69.40       68.41       67.42    
        66.43       65.44       64.45       63.46       62.47       61.48       60.49       59.50       58.51       57.52    
        56.53       55.54       54.55       53.56       52.57       51.58       50.59       49.60       48.61       47.62    
        46.63       45.64       44.65       43.66       42.67       41.68       40.69       39.70       38.71       37.72    
  41    136.7       135.7       134.7       133.7       132.8       131.8       130.8       129.8       128.8       127.8    
        126.8       125.8       124.8       123.8       122.9       121.9       120.9       119.9       118.9       117.9    
        116.9       115.9       114.9       113.9       113.0       112.0       111.0       110.0       109.0       108.0    
        107.0       106.0       105.0       104.0       103.1       102.1       101.1       100.1       99.09       98.10    
        97.11       96.12       95.13       94.14       93.15       92.16       91.17       90.18       89.19       88.20    
        87.21       86.22       85.23       84.25       83.26       82.27       81.28       80.29       79.30       78.31    
        77.32       76.33       75.34       74.35       73.36       72.37       71.38       70.39       69.40       68.41    
        67.42       66.43       65.44       64.45       63.46       62.47       61.48       60.49       59.50       58.51    
        57.52       56.53       55.54       54.55       53.56       52.57       51.58       50.59       49.60       48.61    
        47.62       46.63       45.64       44.65       43.66       42.67       41.68       40.69       39.70       38.71    
  42    137.7       136.7       135.7       134.7       133.7       132.8       131.8       130.8       129.8       128.8    
        127.8       126.8       125.8       124.8       123.8       122.9       121.9       120.9       119.9       118.9    
        117.9       116.9       115.9       114.9       113.9       113.0       112.0       111.0       110.0       109.0    
        108.0       107.0       106.0       105.0       104.0       103.1       102.1       101.1       100.1       99.09    
        98.10       97.11       96.12       95.13       94.14       93.15       92.16       91.17       90.18       89.19    
        88.20       87.21       86.22       85.23       84.25       83.26       82.27       81.28       80.29       79.30    
        78.31       77.32       76.33       75.34       74.35       73.36       72.37       71.38       70.39       69.40    
        68.41       67.42       66.43       65.44       64.45       63.46       62.47       61.48       60.49       59.50    
        58.51       57.52       56.53       55.54       54.55       53.56       52.57       51.58       50.59       49.60    
        48.61       47.62       46.63       45.64       44.65       43.66       42.67       41.68       40.69       39.70    
  43    138.7       137.7       136.7       135.7       134.7       133.7       132.8       131.8       130.8       129.8    
        128.8       127.8       126.8       125.8       124.8       123.8       122.9       121.9       120.9       119.9    
        118.9       117.9       116.9       115.9       114.9       113.9       113.0       112.0       111.0       110.0    
        109.0       108.0       107.0       106.0       105.0       104.0       103.1       102.1       101.1       100.1    
        99.09       98.10       97.11       96.12       95.13       94.14       93.15       92.16       91.17       90.18    
        89.19       88.20       87.21       86.22       85.23       84.25       83.26       82.27       81.28       80.29    
        79.30       78.31       77.32       76.33       75.34       74.35       73.36       72.37       71.38       70.39    
        69.40       68.41       67.42       66.43       65.44       64.45       63.46       62.47       61.48       60.49    
        59.50       58.51       57.52       56.53       55.54       54.55       53.56       52.57       51.58       50.59    
        49.60       48.61       47.62       46.63       45.64       44.65       43.66       42.67       41.68       40.69    
  44    139.7       138.7       137.7       136.7       135.7       134.7       133.7       132.8       131.8       130.8    
        129.8       128.8       127.8       126.8       125.8       124.8       123.8       122.9       121.9       120.9    
        119.9       118.9       117.9       116.9       115.9       114.9       113.9       113.0       112.0       111.0    
        110.0       109.0       108.0       107.0       106.0       105.0       104.0       103.1       102.1       101.1    
        100.1       99.09       98.10       97.11       96.12       95.13       94.14       93.15       92.16       91.17    
        90.18       89.19       88.20       87.21       86.22       85.23       84.25       83.26       82.27       81.28    
        80.29       79.30       78.31       77.32       76.33       75.34       74.35       73.36       72.37       71.38    
        70.39       69.40       68.41       67.42       66.43       65.44       64.45       63.46       62.47       61.48    
        60.49       59.50       58.51       57.52       56.53       55.54       54.55       53.56       52.57       51.58    
        50.59       49.60       48.61       47.62       46.63       45.64       44.65       43.66       42.67       41.68    
  45    140.7       139.7       138.7       137.7       136.7       135.7       134.7       133.7       132.8       131.8    
        130.8       129.8       128.8       127.8       126.8       125.8       124.8       123.8       122.9       121.9    
        120.9       119.9       118.9       117.9       116.9       115.9       114.9       113.9       113.0       112.0    
        111.0       110.0       109.0       108.0       107.0       106.0       105.0       104.0       103.1       102.1    
        101.1       100.1       99.09       98.10       97.11       96.12       95.13       94.14       93.15       92.16    
        91.17       90.18       89.19       88.20       87.21       86.22       85.23       84.25       83.26       82.27    
        81.28       80.29       79.30       78.31       77.32       76.33       75.34       74.35       73.36       72.37    
        71.38       70.39       69.40       68.41       67.42       66.43       65.44       64.45       63.46       62.47    
        61.48       60.49       59.50       58.51       57.52       56.53       55.54       54.55       53.56       52.57    
        51.58       50.59       49.60       48.61       47.62       46.63       45.64       44.65       43.66       42.67    
  46    141.7       140.7       139.7       138.7       137.7       136.7       135.7       134.7       133.7       132.8    
        131.8       130.8       129.8       128.8       127.8       126.8       125.8       124.8       123.8       122.9    
        121.9       120.9       119.9       118.9       117.9       116.9       115.9       114.9       113.9       113.0    
        112.0       111.0       110.0       109.0       108.0       107.0       106.0       105.0       104.0       103.1    
        102.1       101.1       100.1       99.09       98.10       97.11       96.12       95.13       94.14       93.15    
        92.16       91.17       90.18       89.19       88.20       87.21       86.22       85.23       84.25       83.26    
        82.27       81.28       80.29       79.30       78.31       77.32       76.33       75.34       74.35       73.36    
        72.37       71.38       70.39       69.40       68.41       67.42       66.43       65.44       64.45       63.46    
        62.47       61.48       60.49       59.50       58.51       57.52       56.53       55.54       54.55       53.56    
        52.57       51.58       50.59       49.60       48.61       47.62       46.63       45.64       44.65       43.66    
  47    142.7       141.7       140.7       139.7       138.7       137.7       136.7       135.7       134.7       133.7    
        132.8       131.8       130.8       129.8       128.8       127.8       126.8       125.8       124.8       123.8    
        122.9       121.9       120.9       119.9       118.9       117.9       116.9       115.9       114.9       113.9    
        113.0       112.0       111.0       110.0       109.0       108.0       107.0       106.0       105.0       104.0    
        103.1       102.1       101.1       100.1       99.09       98.10       97.11       96.12       95.13       94.14    
        93.15       92.16       91.17       90.18       89.19       88.20       87.21       86.22       85.23       84.25    
        83.26       82.27       81.28       80.29       79.30       78.31       77.32       76.33       75.34       74.35    
        73.36       72.37       71.38       70.39       69.40       68.41       67.42       66.43       65.44       64.45    
        63.46       62.47       61.48       60.49       59.50       58.51       57.52       56.53       55.54       54.55    
        53.56       52.57       51.58       50.59       49.60       48.61       47.62       46.63       45.64       44.65    
  48    143.6       142.7       141.7       140.7       139.7       138.7       137.7       136.7       135.7       134.7    
        133.7       132.8       131.8       130.8       129.8       128.8       127.8       126.8       125.8       124.8    
        123.8       122.9       121.9       120.9       119.9       118.9       117.9       116.9       115.9       114.9    
        113.9       113.0       112.0       111.0       110.0       109.0       108.0       107.0       106.0       105.0    
        104.0       103.1       102.1       101.1       100.1       99.09       98.10       97.11       96.12       95.13    
        94.14       93.15       92.16       91.17       90.18       89.19       88.20       87.21       86.22       85.23    
        84.25       83.26       82.27       81.28       80.29       79.30       78.31       77.32       76.33       75.34    
        74.35       73.36       72.37       71.38       70.39       69.40       68.41       67.42       66.43       65.44    
        64.45       63.46       62.47       61.48       60.49       59.50       58.51       57.52       56.53       55.54    
        54.55       53.56       52.57       51.58       50.59       49.60       48.61       47.62       46.63       45.64    
  49    144.6       143.6       142.7       141.7       140.7       139.7       138.7       137.7       136.7       135.7    
        134.7       133.7       132.8       131.8       130.8       129.8       128.8       127.8       126.8       125.8    
        124.8       123.8       122.9       121.9       120.9       119.9       118.9       117.9       116.9       115.9    
        114.9       113.9       113.0       112.0       111.0       110.0       109.0       108.0       107.0       106.0    
        105.0       104.0       103.1       102.1       101.1       100.1       99.09       98.10       97.11       96.12    
        95.13       94.14       93.15       92.16       91.17       90.18       89.19       88.20       87.21       86.22    
        85.23       84.25       83.26       82.27       81.28       80.29       79.30       78.31       77.32       76.33    
        75.34       74.35       73.36       72.37       71.38       70.39       69.40       68.41       67.42       66.43    
        65.44       64.45       63.46       62.47       61.48       60.49       59.50       58.51       57.52       56.53    
        55.54       54.55       53.56       52.57       51.58       50.59       49.60       48.61       47.62       46.63    
  50    145.6       144.6       143.6       142.7       141.7       140.7       139.7       138.7       137.7       136.7    
        135.7       134.7       133.7       132.8       131.8       130.8       129.8       128.8       127.8       126.8    
        125.8       124.8       123.8       122.9       121.9       120.9       119.9       118.9       117.9       116.9    
        115.9       114.9       113.9       113.0       112.0       111.0       110.0       109.0       108.0       107.0    
        106.0       105.0       104.0       103.1       102.1       101.1       100.1       99.09       98.10       97.11    
        96.12       95.13       94.14       93.15       92.16       91.17       90.18       89.19       88.20       87.21    
        86.22       85.23       84.25       83.26       82.27       81.28       80.29       79.30       78.31       77.32    
        76.33       75.34       74.35       73.36       72.37       71.38       70.39       69.40       68.41       67.42    
        66.43       65.44       64.45       63.46       62.47       61.48       60.49       59.50       58.51       57.52    
        56.53       55.54       54.55       53.56       52.57       51.58       50.59       49.60       48.61       47.62    
  51    146.6       145.6       144.6       143.6       142.7       141.7       140.7       139.7       138.7       137.7    
        136.7       135.7       134.7       133.7       132.8       131.8       130.8       129.8       128.8       127.8    
        126.8       125.8       124.8       123.8       122.9       121.9       120.9       119.9       118.9       117.9    
        116.9       115.9       114.9       113.9       113.0       112.0       111.0       110.0       109.0       108.0    
        107.0       106.0       105.0       104.0       103.1       102.1       101.1       100.1       99.09       98.10    
        97.11       96.12       95.13       94.14       93.15       92.16       91.17       90.18       89.19       88.20    
        87.21       86.22       85.23       84.25       83.26       82.27       81.28       80.29       79.30       78.31    
        77.32       76.33       75.34       74.35       73.36       72.37       71.38       70.39       69.40       68.41    
        67.42       66.43       65.44       64.45       63.46       62.47       61.48       60.49       59.50       58.51    
        57.52       56.53       55.54       54.55       53.56       52.57       51.58       50.59       49.60       48.61    
  52    147.6       146.6       145.6       144.6       143.6       142.7       141.7       140.7       139.7       138.7    
        137.7       136.7       135.7       134.7       133.7       132.8       131.8       130.8       129.8       128.8    
        127.8       126.8       125.8       124.8       123.8       122.9       121.9       120.9       119.9       118.9    
        117.9       116.9       115.9       114.9       113.9       113.0       112.0       111.0       110.0       109.0    
        108.0       107.0       106.0       105.0       104.0       103.1       102.1       101.1       100.1       99.09    
        98.10       97.11       96.12       95.13       94.14       93.15       92.16       91.17       90.18       89.19    
        88.20       87.21       86.22       85.23       84.24       83.26       82.27       81.28       80.29       79.30    
        78.31       77.32       76.33       75.34       74.35       73.36       72.37       71.38       70.39       69.40    
        68.41       67.42       66.43       65.44       64.45       63.46       62.47       61.48       60.49       59.50    
        58.51       57.52       56.53       55.54       54.55       53.56       52.57       51.58       50.59       49.60    
  53    148.6       147.6       146.6       145.6       144.6       143.6       142.7       141.7       140.7       139.7    
        138.7       137.7       136.7       135.7       134.7       133.7       132.8       131.8       130.8       129.8    
        128.8       127.8       126.8       125.8       124.8       123.8       122.9       121.9       120.9       119.9    
        118.9       117.9       116.9       115.9       114.9       113.9       113.0       112.0       111.0       110.0    
        109.0       108.0       107.0       106.0       105.0       104.0       103.1       102.1       101.1       100.1    
        99.09       98.10       97.11       96.12       95.13       94.14       93.15       92.16       91.17       90.18    
        89.19       88.20       87.21       86.22       85.23       84.24       83.26       82.27       81.28       80.29    
        79.30       78.31       77.32       76.33       75.34       74.35       73.36       72.37       71.38       70.39    
        69.40       68.41       67.42       66.43       65.44       64.45       63.46       62.47       61.48       60.49    
        59.50       58.51       57.52       56.53       55.54       54.55       53.56       52.57       51.58       50.59    
  54    149.6       148.6       147.6       146.6       145.6       144.6       143.6       142.7       141.7       140.7    
        139.7       138.7       137.7       136.7       135.7       134.7       133.7       132.8       131.8       130.8    
        129.8       128.8       127.8       126.8       125.8       124.8       123.8       122.9       121.9       120.9    
        119.9       118.9       117.9       116.9       115.9       114.9       113.9       113.0       112.0       111.0    
        110.0       109.0       108.0       107.0       106.0       105.0       104.0       103.1       102.1       101.1    
        100.1       99.09       98.10       97.11       96.12       95.13       94.14       93.15       92.16       91.17    
        90.18       89.19       88.20       87.21       86.22       85.23       84.24       83.26       82.27       81.28    
        80.29       79.30       78.31       77.32       76.33       75.34       74.35       73.36       72.37       71.38    
        70.39       69.40       68.41       67.42       66.43       65.44       64.45       63.46       62.47       61.48    
        60.49       59.50       58.51       57.52       56.53       55.54       54.55       53.56       52.57       51.58    
  55    150.6       149.6       148.6       147.6       146.6       145.6       144.6       143.6       142.7       141.7    
        140.7       139.7       138.7       137.7       136.7       135.7       134.7       133.7       132.8       131.8    
        130.8       129.8       128.8       127.8       126.8       125.8       124.8       123.8       122.9       121.9    
        120.9       119.9       118.9       117.9       116.9       115.9       114.9       113.9       113.0       112.0    
        111.0       110.0       109.0       108.0       107.0       106.0       105.0       104.0       103.1       102.1    
        101.1       100.1       99.09       98.10       97.11       96.12       95.13       94.14       93.15       92.16    
        91.17       90.18       89.19       88.20       87.21       86.22       85.23       84.24       83.26       82.27    
        81.28       80.29       79.30       78.31       77.32       76.33       75.34       74.35       73.36       72.37    
        71.38       70.39       69.40       68.41       67.42       66.43       65.44       64.45       63.46       62.47    
        61.48       60.49       59.50       58.51       57.52       56.53       55.54       54.55       53.56       52.57    
  56    151.6       150.6       149.6       148.6       147.6       146.6       145.6       144.6       143.6       142.7    
        141.7       140.7       139.7       138.7       137.7       136.7       135.7       134.7       133.7       132.8    
        131.8       130.8       129.8       128.8       127.8       126.8       125.8       124.8       123.8       122.9    
        121.9       120.9       119.9       118.9       117.9       116.9       115.9       114.9       113.9       113.0    
        112.0       111.0       110.0       109.0       108.0       107.0       106.0       105.0       104.0       103.1    
        102.1       101.1       100.1       99.09       98.10       97.11       96.12       95.13       94.14       93.15    
        92.16       91.17       90.18       89.19       88.20       87.21       86.22       85.23       84.24       83.26    
        82.27       81.28       80.29       79.30       78.31       77.32       76.33       75.34       74.35       73.36    
        72.37       71.38       70.39       69.40       68.41       67.42       66.43       65.44       64.45       63.46    
        62.47       61.48       60.49       59.50       58.51       57.52       56.53       55.54       54.55       53.56    
  57    152.6       151.6       150.6       149.6       148.6       147.6       146.6       145.6       144.6       143.6    
        142.7       141.7       140.7       139.7       138.7       137.7       136.7       135.7       134.7       133.7    
        132.8       131.8       130.8       129.8       128.8       127.8       126.8       125.8       124.8       123.8    
        122.9       121.9       120.9       119.9       118.9       117.9       116.9       115.9       114.9       113.9    
        113.0       112.0       111.0       110.0       109.0       108.0       107.0       106.0       105.0       104.0    
        103.1       102.1       101.1       100.1       99.09       98.10       97.11       96.12       95.13       94.14    
        93.15       92.16       91.17       90.18       89.19       88.20       87.21       86.22       85.23       84.24    
        83.25       82.27       81.28       80.29       79.30       78.31       77.32       76.33       75.34       74.35    
        73.36       72.37       71.38       70.39       69.40       68.41       67.42       66.43       65.44       64.45    
        63.46       62.47       61.48       60.49       59.50       58.51       57.52       56.53       55.54       54.55    
  58    153.5       152.6       151.6       150.6       149.6       148.6       147.6       146.6       145.6       144.6    
        143.6       142.7       141.7       140.7       139.7       138.7       137.7       136.7       135.7       134.7    
        133.7       132.8       131.8       130.8       129.8       128.8       127.8       126.8       125.8       124.8    
        123.8       122.9       121.9       120.9       119.9       118.9       117.9       116.9       115.9       114.9    
        113.9       113.0       112.0       111.0       110.0       109.0       108.0       107.0       106.0       105.0    
        104.0       103.1       102.1       101.1       100.1       99.09       98.10       97.11       96.12       95.13    
[...]
        112.0       111.0       110.0       109.0       108.0       107.0       106.0       105.0       104.0       103.1    
        102.1       101.1       100.1       99.09       98.10       97.11       96.12       95.13       94.14       93.15    
        92.16       91.17       90.18       89.19       88.20       87.21       86.22       85.23       84.24       83.25    
  87    182.2       181.3       180.3       179.3       178.3       177.3       176.3       175.3       174.3       173.3    
        172.4       171.4       170.4       169.4       168.4       167.4       166.4       165.4       164.4       163.4    
        162.5       161.5       160.5       159.5       158.5       157.5       156.5       155.5       154.5       153.5    
        152.6       151.6       150.6       149.6       148.6       147.6       146.6       145.6       144.6       143.6    
        142.7       141.7       140.7       139.7       138.7       137.7       136.7       135.7       134.7       133.7    
        132.8       131.8       130.8       129.8       128.8       127.8       126.8       125.8       124.8       123.8    
        122.9       121.9       120.9       119.9       118.9       117.9       116.9       115.9       114.9       113.9    
        113.0       112.0       111.0       110.0       109.0       108.0       107.0       106.0       105.0       104.0    
        103.1       102.1       101.1       100.1       99.09       98.10       97.11       96.12       95.13       94.14    
        93.15       92.16       91.17       90.18       89.19       88.20       87.21       86.22       85.23       84.24    
  88    183.2       182.2       181.3       180.3       179.3       178.3       177.3       176.3       175.3       174.3    
        173.3       172.4       171.4       170.4       169.4       168.4       167.4       166.4       165.4       164.4    
        163.4       162.5       161.5       160.5       159.5       158.5       157.5       156.5       155.5       154.5    
        153.5       152.6       151.6       150.6       149.6       148.6       147.6       146.6       145.6       144.6    
        143.6       142.7       141.7       140.7       139.7       138.7       137.7       136.7       135.7       134.7    
        133.7       132.8       131.8       130.8       129.8       128.8       127.8       126.8       125.8       124.8    
        123.8       122.9       121.9       120.9       119.9       118.9       117.9       116.9       115.9       114.9    
        113.9       113.0       112.0       111.0       110.0       109.0       108.0       107.0       106.0       105.0    
        104.0       103.1       102.1       101.1       100.1       99.09       98.10       97.11       96.12       95.13    
        94.14       93.15       92.16       91.17       90.18       89.19       88.20       87.21       86.22       85.23    
  89    184.2       183.2       182.2       181.3       180.3       179.3       178.3       177.3       176.3       175.3    
        174.3       173.3       172.4       171.4       170.4       169.4       168.4       167.4       166.4       165.4    
        164.4       163.4       162.5       161.5       160.5       159.5       158.5       157.5       156.5       155.5    
        154.5       153.5       152.6       151.6       150.6       149.6       148.6       147.6       146.6       145.6    
        144.6       143.6       142.7       141.7       140.7       139.7       138.7       137.7       136.7       135.7    
        134.7       133.7       132.8       131.8       130.8       129.8       128.8       127.8       126.8       125.8    
        124.8       123.8       122.9       121.9       120.9       119.9       118.9       117.9       116.9       115.9    
        114.9       113.9       113.0       112.0       111.0       110.0       109.0       108.0       107.0       106.0    
        105.0       104.0       103.1       102.1       101.1       100.1       99.09       98.10       97.11       96.12    
        95.13       94.14       93.15       92.16       91.17       90.18       89.19       88.20       87.21       86.22    
  90    185.2       184.2       183.2       182.2       181.3       180.3       179.3       178.3       177.3       176.3    
        175.3       174.3       173.3       172.4       171.4       170.4       169.4       168.4       167.4       166.4    
        165.4       164.4       163.4       162.5       161.5       160.5       159.5       158.5       157.5       156.5    
        155.5       154.5       153.5       152.6       151.6       150.6       149.6       148.6       147.6       146.6    
        145.6       144.6       143.6       142.7       141.7       140.7       139.7       138.7       137.7       136.7    
        135.7       134.7       133.7       132.8       131.8       130.8       129.8       128.8       127.8       126.8    
        125.8       124.8       123.8       122.9       121.9       120.9       119.9       118.9       117.9       116.9    
        115.9       114.9       113.9       113.0       112.0       111.0       110.0       109.0       108.0       107.0    
        106.0       105.0       104.0       103.1       102.1       101.1       100.1       99.09       98.10       97.11    
        96.12       95.13       94.14       93.15       92.16       91.17       90.18       89.19       88.20       87.21    
  91    186.2       185.2       184.2       183.2       182.2       181.3       180.3       179.3       178.3       177.3    
        176.3       175.3       174.3       173.3       172.4       171.4       170.4       169.4       168.4       167.4    
        166.4       165.4       164.4       163.4       162.5       161.5       160.5       159.5       158.5       157.5    
        156.5       155.5       154.5       153.5       152.6       151.6       150.6       149.6       148.6       147.6    
        146.6       145.6       144.6       143.6       142.7       141.7       140.7       139.7       138.7       137.7    
        136.7       135.7       134.7       133.7       132.8       131.8       130.8       129.8       128.8       127.8    
        126.8       125.8       124.8       123.8       122.9       121.9       120.9       119.9       118.9       117.9    
        116.9       115.9       114.9       113.9       113.0       112.0       111.0       110.0       109.0       108.0    
        107.0       106.0       105.0       104.0       103.1       102.1       101.1       100.1       99.09       98.10    
        97.11       96.12       95.13       94.14       93.15       92.16       91.17       90.18       89.19       88.20    
  92    187.2       186.2       185.2       184.2       183.2       182.3       181.3       180.3       179.3       178.3    
        177.3       176.3       175.3       174.3       173.3       172.4       171.4       170.4       169.4       168.4    
        167.4       166.4       165.4       164.4       163.4       162.5       161.5       160.5       159.5       158.5    
        157.5       156.5       155.5       154.5       153.5       152.6       151.6       150.6       149.6       148.6    
        147.6       146.6       145.6       144.6       143.6       142.7       141.7       140.7       139.7       138.7    
        137.7       136.7       135.7       134.7       133.7       132.8       131.8       130.8       129.8       128.8    
        127.8       126.8       125.8       124.8       123.8       122.9       121.9       120.9       119.9       118.9    
        117.9       116.9       115.9       114.9       113.9       113.0       112.0       111.0       110.0       109.0    
        108.0       107.0       106.0       105.0       104.0       103.1       102.1       101.1       100.1       99.09    
        98.10       97.11       96.12       95.13       94.14       93.15       92.16       91.17       90.18       89.19    
  93    188.2       187.2       186.2       185.2       184.2       183.2       182.3       181.3       180.3       179.3    
        178.3       177.3       176.3       175.3       174.3       173.3       172.4       171.4       170.4       169.4    
        168.4       167.4       166.4       165.4       164.4       163.4       162.5       161.5       160.5       159.5    
        158.5       157.5       156.5       155.5       154.5       153.5       152.6       151.6       150.6       149.6    
        148.6       147.6       146.6       145.6       144.6       143.6       142.7       141.7       140.7       139.7    
        138.7       137.7       136.7       135.7       134.7       133.7       132.8       131.8       130.8       129.8    
        128.8       127.8       126.8       125.8       124.8       123.8       122.9       121.9       120.9       119.9    
        118.9       117.9       116.9       115.9       114.9       113.9       113.0       112.0       111.0       110.0    
        109.0       108.0       107.0       106.0       105.0       104.0       103.1       102.1       101.1       100.1    
        99.09       98.10       97.11       96.12       95.13       94.14       93.15       92.16       91.17       90.18    
  94    189.2       188.2       187.2       186.2       185.2       184.2       183.2       182.3       181.3       180.3    
        179.3       178.3       177.3       176.3       175.3       174.3       173.3       172.4       171.4       170.4    
        169.4       168.4       167.4       166.4       165.4       164.4       163.4       162.5       161.5       160.5    
        159.5       158.5       157.5       156.5       155.5       154.5       153.5       152.6       151.6       150.6    
        149.6       148.6       147.6       146.6       145.6       144.6       143.6       142.7       141.7       140.7    
        139.7       138.7       137.7       136.7       135.7       134.7       133.7       132.8       131.8       130.8    
        129.8       128.8       127.8       126.8       125.8       124.8       123.8       122.9       121.9       120.9    
        119.9       118.9       117.9       116.9       115.9       114.9       113.9       113.0       112.0       111.0    
        110.0       109.0       108.0       107.0       106.0       105.0       104.0       103.1       102.1       101.1    
        100.1       99.09       98.10       97.11       96.12       95.13       94.14       93.15       92.16       91.17    
  95    190.2       189.2       188.2       187.2       186.2       185.2       184.2       183.2       182.3       181.3    
        180.3       179.3       178.3       177.3       176.3       175.3       174.3       173.3       172.4       171.4    
        170.4       169.4       168.4       167.4       166.4       165.4       164.4       163.4       162.5       161.5    
        160.5       159.5       158.5       157.5       156.5       155.5       154.5       153.5       152.6       151.6    
        150.6       149.6       148.6       147.6       146.6       145.6       144.6       143.6       142.7       141.7    
        140.7       139.7       138.7       137.7       136.7       135.7       134.7       133.7       132.8       131.8    
        130.8       129.8       128.8       127.8       126.8       125.8       124.8       123.8       122.9       121.9    
        120.9       119.9       118.9       117.9       116.9       115.9       114.9       113.9       113.0       112.0    
        111.0       110.0       109.0       108.0       107.0       106.0       105.0       104.0       103.1       102.1    
        101.1       100.1       99.09       98.10       97.11       96.12       95.13       94.14       93.15       92.16    
  96    191.2       190.2       189.2       188.2       187.2       186.2       185.2       184.2       183.2       182.2    
        181.3       180.3       179.3       178.3       177.3       176.3       175.3       174.3       173.3       172.4    
        171.4       170.4       169.4       168.4       167.4       166.4       165.4       164.4       163.4       162.5    
        161.5       160.5       159.5       158.5       157.5       156.5       155.5       154.5       153.5       152.6    
        151.6       150.6       149.6       148.6       147.6       146.6       145.6       144.6       143.6       142.7    
        141.7       140.7       139.7       138.7       137.7       136.7       135.7       134.7       133.7       132.8    
        131.8       130.8       129.8       128.8       127.8       126.8       125.8       124.8       123.8       122.9    
        121.9       120.9       119.9       118.9       117.9       116.9       115.9       114.9       113.9       113.0    
        112.0       111.0       110.0       109.0       108.0       107.0       106.0       105.0       104.0       103.1    
        102.1       101.1       100.1       99.09       98.10       97.11       96.12       95.13       94.14       93.15    
  97    192.1       191.2       190.2       189.2       188.2       187.2       186.2       185.2       184.2       183.2    
        182.2       181.3       180.3       179.3       178.3       177.3       176.3       175.3       174.3       173.3    
        172.4       171.4       170.4       169.4       168.4       167.4       166.4       165.4       164.4       163.4    
        162.5       161.5       160.5       159.5       158.5       157.5       156.5       155.5       154.5       153.5    
        152.6       151.6       150.6       149.6       148.6       147.6       146.6       145.6       144.6       143.6    
        142.7       141.7       140.7       139.7       138.7       137.7       136.7       135.7       134.7       133.7    
        132.8       131.8       130.8       129.8       128.8       127.8       126.8       125.8       124.8       123.8    
        122.9       121.9       120.9       119.9       118.9       117.9       116.9       115.9       114.9       113.9    
        113.0       112.0       111.0       110.0       109.0       108.0       107.0       106.0       105.0       104.0    
        103.1       102.1       101.1       100.1       99.09       98.10       97.11       96.12       95.13       94.14    
  98    193.1       192.1       191.2       190.2       189.2       188.2       187.2       186.2       185.2       184.2    
        183.2       182.2       181.3       180.3       179.3       178.3       177.3       176.3       175.3       174.3    
        173.3       172.4       171.4       170.4       169.4       168.4       167.4       166.4       165.4       164.4    
        163.4       162.5       161.5       160.5       159.5       158.5       157.5       156.5       155.5       154.5    
        153.5       152.6       151.6       150.6       149.6       148.6       147.6       146.6       145.6       144.6    
        143.6       142.7       141.7       140.7       139.7       138.7       137.7       136.7       135.7       134.7    
        133.7       132.8       131.8       130.8       129.8       128.8       127.8       126.8       125.8       124.8    
        123.8       122.9       121.9       120.9       119.9       118.9       117.9       116.9       115.9       114.9    
        113.9       113.0       112.0       111.0       110.0       109.0       108.0       107.0       106.0       105.0    
        104.0       103.1       102.1       101.1       100.1       99.09       98.10       97.11       96.12       95.13    
  99    194.1       193.1       192.1       191.2       190.2       189.2       188.2       187.2       186.2       185.2    
        184.2       183.2       182.2       181.3       180.3       179.3       178.3       177.3       176.3       175.3    
        174.3       173.3       172.4       171.4       170.4       169.4       168.4       167.4       166.4       165.4    
        164.4       163.4       162.5       161.5       160.5       159.5       158.5       157.5       156.5       155.5    
        154.5       153.5       152.6       151.6       150.6       149.6       148.6       147.6       146.6       145.6    
        144.6       143.6       142.7       141.7       140.7       139.7       138.7       137.7       136.7       135.7    
        134.7       133.7       132.8       131.8       130.8       129.8       128.8       127.8       126.8       125.8    
        124.8       123.8       122.9       121.9       120.9       119.9       118.9       117.9       116.9       115.9    
        114.9       113.9       113.0       112.0       111.0       110.0       109.0       108.0       107.0       106.0    
        105.0       104.0       103.1       102.1       101.1       100.1       99.09       98.10       97.11       96.12    
 100    195.1       194.1       193.1       192.1       191.2       190.2       189.2       188.2       187.2       186.2    
        185.2       184.2       183.2       182.2       181.3       180.3       179.3       178.3       177.3       176.3    
        175.3       174.3       173.3       172.4       171.4       170.4       169.4       168.4       167.4       166.4    
        165.4       164.4       163.4       162.5       161.5       160.5       159.5       158.5       157.5       156.5    
        155.5       154.5       153.5       152.6       151.6       150.6       149.6       148.6       147.6       146.6    
        145.6       144.6       143.6       142.7       141.7       140.7       139.7       138.7       137.7       136.7    
        135.7       134.7       133.7       132.8       131.8       130.8       129.8       128.8       127.8       126.8    
        125.8       124.8       123.8       122.9       121.9       120.9       119.9       118.9       117.9       116.9    
        115.9       114.9       113.9       113.0       112.0       111.0       110.0       109.0       108.0       107.0    
        106.0       105.0       104.0       103.1       102.1       101.1       100.1       99.09       98.10       97.11    
1
  VOLUMETRIC BUDGET FOR ENTIRE MODEL AT END OF TIME STEP  1 IN STRESS PERIOD   1
  ------------------------------------------------------------------------------

     CUMULATIVE VOLUMES      L**3       RATES FOR THIS TIME STEP      L**3/T
     ------------------                 ------------------------

           IN:                                      IN:
           ---                                      ---
             STORAGE =           0.0000               STORAGE =           0.0000
       CONSTANT HEAD =      194020.9688         CONSTANT HEAD =         194.0210
               WELLS =          10.0000                 WELLS =       1.0000E-02

            TOTAL IN =      194030.9688              TOTAL IN =         194.0310

          OUT:                                     OUT:
          ----                                     ----
             STORAGE =           0.0000               STORAGE =           0.0000
       CONSTANT HEAD =      194030.9375         CONSTANT HEAD =         194.0309
               WELLS =           0.0000                 WELLS =           0.0000

           TOTAL OUT =      194030.9375             TOTAL OUT =         194.0309

            IN - OUT =       3.1250E-02              IN - OUT =       1.5259E-05

 PERCENT DISCREPANCY =           0.00     PERCENT DISCREPANCY =           0.00






          TIME SUMMARY AT END OF TIME STEP   1 IN STRESS PERIOD    1
                    SECONDS     MINUTES      HOURS       DAYS        YEARS
                    -----------------------------------------------------------
   TIME STEP LENGTH 8.64000E+07 1.44000E+06  24000.      1000.0      2.7379    
 STRESS PERIOD TIME 8.64000E+07 1.44000E+06  24000.      1000.0      2.7379    
         TOTAL TIME 8.64000E+07 1.44000E+06  24000.      1000.0      2.7379    
1

 Run end date and time (yyyy/mm/dd hh:mm:ss): 2025/02/24 16:44:11
 Elapsed run time:  0.046 Seconds

