                                   MODFLOW 6
                U.S. GEOLOGICAL SURVEY MODULAR HYDROLOGIC MODEL
                          GROUNDWATER FLOW MODEL (GWF)
                   VERSION 6.3.0 release candidate 02/06/2022
                               ***DEVELOP MODE***

   MODFLOW 6 compiled Feb 06 2022 02:35:51 with Intel(R) Fortran Intel(R) 64
   Compiler Classic for applications running on Intel(R) 64, Version 2021.5.0
                             Build 20211109_000000

This software is preliminary or provisional and is subject to 
revision. It is being provided to meet the need for timely best 
science. The software has not received final approval by the U.S. 
Geological Survey (USGS). No warranty, expressed or implied, is made 
by the USGS or the U.S. Government as to the functionality of the 
software and related material nor shall the fact of release 
constitute any such warranty. The software is provided on the 
condition that neither the USGS nor the U.S. Government shall be held 
liable for any damages resulting from the authorized or unauthorized 
use of the software.


As a work of the United States Government, this USGS product is 
in the public domain within the United States. You can copy, 
modify, distribute, and perform the work, even for commercial 
purposes, all without asking permission. Additionally, USGS 
waives copyright and related rights in the work worldwide 
through CC0 1.0 Universal Public Domain Dedication 
(https://creativecommons.org/publicdomain/zero/1.0/).

The following GNU Lesser General Public License (LGPL) libraries
are used in this USGS product:

    SPARSKIT version 2.0
      ilut, luson, and qsplit 
      (https://www-users.cse.umn.edu/~saad/software/SPARSKIT/)

    RCM - Reverse Cuthill McKee Ordering
      (https://people.math.sc.edu/Burkardt/f_src/rcm/rcm.html)

    BLAS - Basic Linear Algebra Subprograms Level 1
      (https://people.math.sc.edu/Burkardt/f_src/blas1_d/blas1_d.html)

    SPARSEKIT - Sparse Matrix Utility Package
      amux, dperm, dvperm, rperm, and cperm
      (https://people.sc.fsu.edu/~jburkardt/f77_src/sparsekit/sparsekit.html)

The following BSD-3 License libraries are used in this USGS product:

    Modern Fortran DAG Library
      Copyright (c) 2018, Jacob Williams
      All rights reserved.
      (https://github.com/jacobwilliams/daglib)

MODFLOW 6 compiler options: /O2 /heap-arrays:0 /fpe:0 /traceback /nologo /fpp
/c /module:.\mod_temp\ /object:.\obj_temp\

System command used to initiate simulation:
E:\15_REPOS\d03_Beta-Me\02_Symple_______________________\models\sgn_mfsetup\mf6.exe

MODFLOW was compiled using uniform precision.

Real Variables
  KIND: 8
  TINY (smallest non-zero value):    2.225074-308
  HUGE (largest value):    1.797693+308
  PRECISION: 15
  BIT SIZE: 64

Integer Variables
  KIND: 4
  HUGE (largest value): 2147483647
  BIT SIZE: 32

Long Integer Variables
  KIND: 8
  HUGE (largest value): 9223372036854775807
  BIT SIZE: 64

Logical Variables
  KIND: 4
  BIT SIZE: 32
 

 OPENED sgn_50.dis
 FILE TYPE:DIS6                   UNIT 1005   STATUS:OLD                 
 FORMAT:FORMATTED              ACCESS:SEQUENTIAL          
 ACTION:READ                


 OPENED sgn_50.ic
 FILE TYPE:IC6                    UNIT 1006   STATUS:OLD                 
 FORMAT:FORMATTED              ACCESS:SEQUENTIAL          
 ACTION:READ                


 OPENED sgn_50.npf
 FILE TYPE:NPF6                   UNIT 1007   STATUS:OLD                 
 FORMAT:FORMATTED              ACCESS:SEQUENTIAL          
 ACTION:READ                


 OPENED sgn_50.oc
 FILE TYPE:OC6                    UNIT 1008   STATUS:OLD                 
 FORMAT:FORMATTED              ACCESS:SEQUENTIAL          
 ACTION:READ                


 OPENED sgn_50.sfr
 FILE TYPE:SFR6                   UNIT 1009   STATUS:OLD                 
 FORMAT:FORMATTED              ACCESS:SEQUENTIAL          
 ACTION:READ                


 OPENED sgn_50.wel
 FILE TYPE:WEL6                   UNIT 1010   STATUS:OLD                 
 FORMAT:FORMATTED              ACCESS:SEQUENTIAL          
 ACTION:READ                


 OPENED sgn_50.obs
 FILE TYPE:OBS6                   UNIT 1011   STATUS:OLD                 
 FORMAT:FORMATTED              ACCESS:SEQUENTIAL          
 ACTION:READ                


 OPENED sgn_50.ghb
 FILE TYPE:GHB6                   UNIT 1012   STATUS:OLD                 
 FORMAT:FORMATTED              ACCESS:SEQUENTIAL          
 ACTION:READ                

 NAMEFILE OPTIONS:
    STRESS PACKAGE INPUT WILL BE PRINTED FOR ALL MODEL STRESS PACKAGES
    FLOWS WILL BE SAVED TO BUDGET FILE SPECIFIED IN OUTPUT CONTROL
    NEWTON-RAPHSON method enabled for the model.
    NEWTON-RAPHSON UNDER-RELAXATION based on the bottom elevation of the model will be applied to the model.

 DIS -- STRUCTURED GRID DISCRETIZATION PACKAGE, VERSION 2 : 3/27/2014 - INPUT READ FROM UNIT 1005


 # sgn_50 model version 0.post16.dev0+ge733124
 # File generated by Flopy version 3.10.0.dev1 on 02/01/2025 at 06:12:19.
 # via modflow-setup version 0.6.0 at 2025-02-01 06:12:19
 PROCESSING DISCRETIZATION OPTIONS
    MODEL LENGTH UNIT IS METERS
    XORIGIN SPECIFIED AS     1517927.50000000    
    YORIGIN SPECIFIED AS     5028909.74000000    
    ANGROT SPECIFIED AS     14.0000000000000    
 END OF DISCRETIZATION OPTIONS
 PROCESSING DISCRETIZATION DIMENSIONS
    NLAY =       3
    NROW =      96
    NCOL =      83
 END OF DISCRETIZATION DIMENSIONS
 PROCESSING GRIDDATA

                     DELR =   50.00000    

                     DELC =   50.00000    

 OPENED .\.\top.dat
 FILE TYPE:OPEN/CLOSE   UNIT 1014   STATUS:OLD                 
 FORMAT:FORMATTED              ACCESS:SEQUENTIAL          
 ACTION:READ                


 OPENED .\.\botm_000.dat
 FILE TYPE:OPEN/CLOSE   UNIT 1015   STATUS:OLD                 
 FORMAT:FORMATTED              ACCESS:SEQUENTIAL          
 ACTION:READ                


 OPENED .\.\botm_001.dat
 FILE TYPE:OPEN/CLOSE   UNIT 1016   STATUS:OLD                 
 FORMAT:FORMATTED              ACCESS:SEQUENTIAL          
 ACTION:READ                


 OPENED .\.\botm_002.dat
 FILE TYPE:OPEN/CLOSE   UNIT 1017   STATUS:OLD                 
 FORMAT:FORMATTED              ACCESS:SEQUENTIAL          
 ACTION:READ                


 OPENED .\.\idomain_000.dat
 FILE TYPE:OPEN/CLOSE   UNIT 1018   STATUS:OLD                 
 FORMAT:FORMATTED              ACCESS:SEQUENTIAL          
 ACTION:READ                


 OPENED .\.\idomain_001.dat
 FILE TYPE:OPEN/CLOSE   UNIT 1019   STATUS:OLD                 
 FORMAT:FORMATTED              ACCESS:SEQUENTIAL          
 ACTION:READ                


 OPENED .\.\idomain_002.dat
 FILE TYPE:OPEN/CLOSE   UNIT 1020   STATUS:OLD                 
 FORMAT:FORMATTED              ACCESS:SEQUENTIAL          
 ACTION:READ                

 END PROCESSING GRIDDATA

 NPF -- NODE PROPERTY FLOW PACKAGE, VERSION 1, 3/30/2015 INPUT READ FROM UNIT 1007


 # sgn_50 model version 0.post16.dev0+ge733124
 # File generated by Flopy version 3.10.0.dev1 on 02/01/2025 at 06:12:19.
 # via modflow-setup version 0.6.0 at 2025-02-01 06:12:19
 PROCESSING NPF OPTIONS
    CELL-BY-CELL FLOW INFORMATION WILL BE SAVED TO BINARY FILE WHENEVER ICBCFL IS NOT ZERO.
 END OF NPF OPTIONS

 WEL   -- WEL PACKAGE, VERSION 8, 2/22/2014 INPUT READ FROM UNIT 1010
 # sgn_50 model version 0.post16.dev0+ge733124
 # File generated by Flopy version 3.10.0.dev1 on 02/01/2025 at 06:12:19.
 # via modflow-setup version 0.6.0 at 2025-02-01 06:12:19

 PROCESSING WEL OPTIONS
    WEL BOUNDARIES HAVE NAMES IN LAST COLUMN.
    LISTS OF WEL CELLS WILL BE PRINTED.
    WEL FLOWS WILL BE PRINTED TO LISTING FILE.
    FLOWS WILL BE SAVED TO BUDGET FILE SPECIFIED IN OUTPUT CONTROL

 OPENED sgn_50.wel.obs
 FILE TYPE:OBS   UNIT 1021   STATUS:OLD                 
 FORMAT:FORMATTED              ACCESS:SEQUENTIAL          
 ACTION:READ                

 END OF WEL OPTIONS

 PROCESSING WEL DIMENSIONS
    MAXBOUND =     143
 END OF WEL DIMENSIONS

 GHB   -- GHB PACKAGE, VERSION 8, 2/22/2014 INPUT READ FROM UNIT 1012
 # sgn_50 model version 0.post16.dev0+ge733124
 # File generated by Flopy version 3.10.0.dev1 on 02/01/2025 at 06:12:19.
 # via modflow-setup version 0.6.0 at 2025-02-01 06:12:19

 PROCESSING GHB OPTIONS
    GHB BOUNDARIES HAVE NAMES IN LAST COLUMN.
 END OF GHB OPTIONS

 PROCESSING GHB DIMENSIONS
    MAXBOUND =     708
 END OF GHB DIMENSIONS

 SFR   -- SFR PACKAGE, VERSION 8, 2/22/2014 INPUT READ FROM UNIT 1009
 # sgn_50 model version 0.post16.dev0+ge733124
 # File created by modflow-setup version 0.6.0 at 2025-02-01 06:12:19
 # MODFLOW-6 SFR input; created by SFRmaker v. 0.11.3.post37+gad8cb97

 PROCESSING SFR OPTIONS
    FLOWS WILL BE SAVED TO BUDGET FILE SPECIFIED IN OUTPUT CONTROL
    MOVER OPTION ENABLED

 OPENED sgn_50.sfr.out.bin
 FILE TYPE:DATA(BINARY)   UNIT 1022   STATUS:REPLACE             
 FORMAT:UNFORMATTED            ACCESS:STREAM              
 ACTION:READWRITE           

    SFR  BUDGET  WILL BE SAVED TO FILE: sgn_50.sfr.out.bin
    OPENED ON UNIT: 1022

 OPENED sgn_50.sfr.stage.bin
 FILE TYPE:DATA(BINARY)   UNIT 1023   STATUS:REPLACE             
 FORMAT:UNFORMATTED            ACCESS:STREAM              
 ACTION:READWRITE           

    SFR  STAGE  WILL BE SAVED TO FILE: sgn_50.sfr.stage.bin
    OPENED ON UNIT: 1023

 OPENED sgn_50.sfr.obs
 FILE TYPE:OBS   UNIT 1024   STATUS:OLD                 
 FORMAT:FORMATTED              ACCESS:SEQUENTIAL          
 ACTION:READ                

    UNIT CONVERSION VALUE (86400.00000000000) SPECIFIED.
    AUXILIARY SFR VARIABLE: LINE_ID         
 END OF SFR OPTIONS

 PROCESSING SFR DIMENSIONS
    NREACHES = 137
 END OF SFR DIMENSIONS

 OPENED .\sgn_50_packagedata.dat
 FILE TYPE:OPEN/CLOSE   UNIT 1025   STATUS:OLD                 
 FORMAT:FORMATTED              ACCESS:SEQUENTIAL          
 ACTION:READ                


 PROCESSING SFR PACKAGEDATA
 #rno k i j rlen rwid rgrd rtp rbth rhk man ncon ustrf ndv line_id
 END OF SFR PACKAGEDATA

 PROCESSING SFR CONNECTIONDATA
 END OF SFR CONNECTIONDATA

 IC -- INITIAL CONDITIONS PACKAGE, VERSION 8, 3/28/2015 INPUT READ FROM UNIT 1006
 # sgn_50 model version 0.post16.dev0+ge733124
 # File generated by Flopy version 3.10.0.dev1 on 02/01/2025 at 06:12:19.
 # via modflow-setup version 0.6.0 at 2025-02-01 06:12:19
 PROCESSING IC OPTIONS
 END OF IC OPTIONS
 PROCESSING GRIDDATA

 OPENED .\.\DTM_domain.tif
 FILE TYPE:OPEN/CLOSE   UNIT 1026   STATUS:OLD                 
 FORMAT:FORMATTED              ACCESS:SEQUENTIAL          
 ACTION:READ                


 OPENED .\.\DTM_domain.tif
 FILE TYPE:OPEN/CLOSE   UNIT 1027   STATUS:OLD                 
 FORMAT:FORMATTED              ACCESS:SEQUENTIAL          
 ACTION:READ                


 OPENED .\.\DTM_domain.tif
 FILE TYPE:OPEN/CLOSE   UNIT 1028   STATUS:OLD                 
 FORMAT:FORMATTED              ACCESS:SEQUENTIAL          
 ACTION:READ                

 END PROCESSING GRIDDATA
 PROCESSING GRIDDATA

                ICELLTYPE = 1

 OPENED .\.\k_000.dat
 FILE TYPE:OPEN/CLOSE   UNIT 1029   STATUS:OLD                 
 FORMAT:FORMATTED              ACCESS:SEQUENTIAL          
 ACTION:READ                


 OPENED .\.\k_001.dat
 FILE TYPE:OPEN/CLOSE   UNIT 1030   STATUS:OLD                 
 FORMAT:FORMATTED              ACCESS:SEQUENTIAL          
 ACTION:READ                


 OPENED .\.\k_002.dat
 FILE TYPE:OPEN/CLOSE   UNIT 1031   STATUS:OLD                 
 FORMAT:FORMATTED              ACCESS:SEQUENTIAL          
 ACTION:READ                

 K33 not provided.  Assuming K33 = K.
 K22 not provided.  Assuming K22 = K.
 END PROCESSING GRIDDATA

The observation utility is active for "SGN_50"
 # sgn_50 model version 0.post16.dev0+ge733124
 # File generated by Flopy version 3.10.0.dev1 on 02/01/2025 at 06:12:19.
 # via modflow-setup version 0.6.0 at 2025-02-01 06:12:19

Processing observation options:

Text output number of digits of precision set to: 10
The PRINT_INPUT option has been specified.


 OBSERVATIONS READ FROM FILE "sgn_50.obs"
 ----------------------------------------------------------------------------------------------------------------------------------------------------------------------------------------------------------------------------
 NAME                                     TYPE                                       TIME         LOCATION DATA                              OUTPUT FILENAME                                                                 
 ----------------------------------------------------------------------------------------------------------------------------------------------------------------------------------------------------------------------------
 MM164                                    CONTINUOUS  HEAD                           ALL TIMES    "  1 96 74"                                sgn_50.head.obs                                                                 
 MM164                                    CONTINUOUS  HEAD                           ALL TIMES    "  2 96 74"                                sgn_50.head.obs                                                                 
 MM164                                    CONTINUOUS  HEAD                           ALL TIMES    "  3 96 74"                                sgn_50.head.obs                                                                 
 MM32                                     CONTINUOUS  HEAD                           ALL TIMES    "  1 46 16"                                sgn_50.head.obs                                                                 
 MM32                                     CONTINUOUS  HEAD                           ALL TIMES    "  2 46 16"                                sgn_50.head.obs                                                                 
 MM32                                     CONTINUOUS  HEAD                           ALL TIMES    "  3 46 16"                                sgn_50.head.obs                                                                 
 MM35                                     CONTINUOUS  HEAD                           ALL TIMES    "  1 68 38"                                sgn_50.head.obs                                                                 
 MM35                                     CONTINUOUS  HEAD                           ALL TIMES    "  2 68 38"                                sgn_50.head.obs                                                                 
 MM35                                     CONTINUOUS  HEAD                           ALL TIMES    "  3 68 38"                                sgn_50.head.obs                                                                 
 MM57                                     CONTINUOUS  HEAD                           ALL TIMES    "  1 1 19"                                 sgn_50.head.obs                                                                 
 MM57                                     CONTINUOUS  HEAD                           ALL TIMES    "  2 1 19"                                 sgn_50.head.obs                                                                 
 MM57                                     CONTINUOUS  HEAD                           ALL TIMES    "  3 1 19"                                 sgn_50.head.obs                                                                 
 MM97                                     CONTINUOUS  HEAD                           ALL TIMES    "  1 18 21"                                sgn_50.head.obs                                                                 
 MM97                                     CONTINUOUS  HEAD                           ALL TIMES    "  2 18 21"                                sgn_50.head.obs                                                                 
 MM97                                     CONTINUOUS  HEAD                           ALL TIMES    "  3 18 21"                                sgn_50.head.obs                                                                 
 MMS27                                    CONTINUOUS  HEAD                           ALL TIMES    "  1 1 52"                                 sgn_50.head.obs                                                                 
 MMS27                                    CONTINUOUS  HEAD                           ALL TIMES    "  2 1 52"                                 sgn_50.head.obs                                                                 
 MMS27                                    CONTINUOUS  HEAD                           ALL TIMES    "  3 1 52"                                 sgn_50.head.obs                                                                 
 P1002                                    CONTINUOUS  HEAD                           ALL TIMES    "  1 46 42"                                sgn_50.head.obs                                                                 
 P1002                                    CONTINUOUS  HEAD                           ALL TIMES    "  2 46 42"                                sgn_50.head.obs                                                                 
 P1002                                    CONTINUOUS  HEAD                           ALL TIMES    "  3 46 42"                                sgn_50.head.obs                                                                 
 P1003                                    CONTINUOUS  HEAD                           ALL TIMES    "  1 45 45"                                sgn_50.head.obs                                                                 
 P1003                                    CONTINUOUS  HEAD                           ALL TIMES    "  2 45 45"                                sgn_50.head.obs                                                                 
 P1003                                    CONTINUOUS  HEAD                           ALL TIMES    "  3 45 45"                                sgn_50.head.obs                                                                 
 PC1_AMS_BIS                              CONTINUOUS  HEAD                           ALL TIMES    "  1 47 45"                                sgn_50.head.obs                                                                 
 PC1_AMS_BIS                              CONTINUOUS  HEAD                           ALL TIMES    "  2 47 45"                                sgn_50.head.obs                                                                 
 PC1_AMS_BIS                              CONTINUOUS  HEAD                           ALL TIMES    "  3 47 45"                                sgn_50.head.obs                                                                 
 PC2_AMS                                  CONTINUOUS  HEAD                           ALL TIMES    "  1 47 40"                                sgn_50.head.obs                                                                 
 PC2_AMS                                  CONTINUOUS  HEAD                           ALL TIMES    "  2 47 40"                                sgn_50.head.obs                                                                 
 PC2_AMS                                  CONTINUOUS  HEAD                           ALL TIMES    "  3 47 40"                                sgn_50.head.obs                                                                 
 PC3_AMS                                  CONTINUOUS  HEAD                           ALL TIMES    "  1 50 42"                                sgn_50.head.obs                                                                 
 PC3_AMS                                  CONTINUOUS  HEAD                           ALL TIMES    "  2 50 42"                                sgn_50.head.obs                                                                 
 PC3_AMS                                  CONTINUOUS  HEAD                           ALL TIMES    "  3 50 42"                                sgn_50.head.obs                                                                 
 PC4_AMS                                  CONTINUOUS  HEAD                           ALL TIMES    "  1 51 44"                                sgn_50.head.obs                                                                 
 PC4_AMS                                  CONTINUOUS  HEAD                           ALL TIMES    "  2 51 44"                                sgn_50.head.obs                                                                 
 PC4_AMS                                  CONTINUOUS  HEAD                           ALL TIMES    "  3 51 44"                                sgn_50.head.obs                                                                 
 PIEZ1                                    CONTINUOUS  HEAD                           ALL TIMES    "  1 53 42"                                sgn_50.head.obs                                                                 
 PIEZ1                                    CONTINUOUS  HEAD                           ALL TIMES    "  2 53 42"                                sgn_50.head.obs                                                                 
 PIEZ1                                    CONTINUOUS  HEAD                           ALL TIMES    "  3 53 42"                                sgn_50.head.obs                                                                 
 PIEZ11                                   CONTINUOUS  HEAD                           ALL TIMES    "  1 61 47"                                sgn_50.head.obs                                                                 
 PIEZ11                                   CONTINUOUS  HEAD                           ALL TIMES    "  2 61 47"                                sgn_50.head.obs                                                                 
 PIEZ11                                   CONTINUOUS  HEAD                           ALL TIMES    "  3 61 47"                                sgn_50.head.obs                                                                 
 PIEZ13                                   CONTINUOUS  HEAD                           ALL TIMES    "  1 63 48"                                sgn_50.head.obs                                                                 
 PIEZ13                                   CONTINUOUS  HEAD                           ALL TIMES    "  2 63 48"                                sgn_50.head.obs                                                                 
 PIEZ13                                   CONTINUOUS  HEAD                           ALL TIMES    "  3 63 48"                                sgn_50.head.obs                                                                 
 PIEZ14                                   CONTINUOUS  HEAD                           ALL TIMES    "  1 64 47"                                sgn_50.head.obs                                                                 
 PIEZ14                                   CONTINUOUS  HEAD                           ALL TIMES    "  2 64 47"                                sgn_50.head.obs                                                                 
 PIEZ14                                   CONTINUOUS  HEAD                           ALL TIMES    "  3 64 47"                                sgn_50.head.obs                                                                 
 PIEZ15                                   CONTINUOUS  HEAD                           ALL TIMES    "  1 65 46"                                sgn_50.head.obs                                                                 
 PIEZ15                                   CONTINUOUS  HEAD                           ALL TIMES    "  2 65 46"                                sgn_50.head.obs                                                                 
 PIEZ15                                   CONTINUOUS  HEAD                           ALL TIMES    "  3 65 46"                                sgn_50.head.obs                                                                 
 PIEZ16                                   CONTINUOUS  HEAD                           ALL TIMES    "  1 65 45"                                sgn_50.head.obs                                                                 
 PIEZ16                                   CONTINUOUS  HEAD                           ALL TIMES    "  2 65 45"                                sgn_50.head.obs                                                                 
 PIEZ16                                   CONTINUOUS  HEAD                           ALL TIMES    "  3 65 45"                                sgn_50.head.obs                                                                 
 PIEZ17                                   CONTINUOUS  HEAD                           ALL TIMES    "  1 65 44"                                sgn_50.head.obs                                                                 
 PIEZ17                                   CONTINUOUS  HEAD                           ALL TIMES    "  2 65 44"                                sgn_50.head.obs                                                                 
 PIEZ17                                   CONTINUOUS  HEAD                           ALL TIMES    "  3 65 44"                                sgn_50.head.obs                                                                 
 PIEZ2                                    CONTINUOUS  HEAD                           ALL TIMES    "  1 54 42"                                sgn_50.head.obs                                                                 
 PIEZ2                                    CONTINUOUS  HEAD                           ALL TIMES    "  2 54 42"                                sgn_50.head.obs                                                                 
 PIEZ2                                    CONTINUOUS  HEAD                           ALL TIMES    "  3 54 42"                                sgn_50.head.obs                                                                 
 PIEZ3                                    CONTINUOUS  HEAD                           ALL TIMES    "  1 54 43"                                sgn_50.head.obs                                                                 
 PIEZ3                                    CONTINUOUS  HEAD                           ALL TIMES    "  2 54 43"                                sgn_50.head.obs                                                                 
 PIEZ3                                    CONTINUOUS  HEAD                           ALL TIMES    "  3 54 43"                                sgn_50.head.obs                                                                 
 PIEZ5                                    CONTINUOUS  HEAD                           ALL TIMES    "  1 56 44"                                sgn_50.head.obs                                                                 
 PIEZ5                                    CONTINUOUS  HEAD                           ALL TIMES    "  2 56 44"                                sgn_50.head.obs                                                                 
 PIEZ5                                    CONTINUOUS  HEAD                           ALL TIMES    "  3 56 44"                                sgn_50.head.obs                                                                 
 PIEZ6                                    CONTINUOUS  HEAD                           ALL TIMES    "  1 56 44"                                sgn_50.head.obs                                                                 
 PIEZ6                                    CONTINUOUS  HEAD                           ALL TIMES    "  2 56 44"                                sgn_50.head.obs                                                                 
 PIEZ6                                    CONTINUOUS  HEAD                           ALL TIMES    "  3 56 44"                                sgn_50.head.obs                                                                 
 PIEZ7                                    CONTINUOUS  HEAD                           ALL TIMES    "  1 57 45"                                sgn_50.head.obs                                                                 
 PIEZ7                                    CONTINUOUS  HEAD                           ALL TIMES    "  2 57 45"                                sgn_50.head.obs                                                                 
 PIEZ7                                    CONTINUOUS  HEAD                           ALL TIMES    "  3 57 45"                                sgn_50.head.obs                                                                 
 PIEZ8                                    CONTINUOUS  HEAD                           ALL TIMES    "  1 58 45"                                sgn_50.head.obs                                                                 
 PIEZ8                                    CONTINUOUS  HEAD                           ALL TIMES    "  2 58 45"                                sgn_50.head.obs                                                                 
 PIEZ8                                    CONTINUOUS  HEAD                           ALL TIMES    "  3 58 45"                                sgn_50.head.obs                                                                 
 PIEZ9                                    CONTINUOUS  HEAD                           ALL TIMES    "  1 59 46"                                sgn_50.head.obs                                                                 
 PIEZ9                                    CONTINUOUS  HEAD                           ALL TIMES    "  2 59 46"                                sgn_50.head.obs                                                                 
 PIEZ9                                    CONTINUOUS  HEAD                           ALL TIMES    "  3 59 46"                                sgn_50.head.obs                                                                 
 PIEZM1                                   CONTINUOUS  HEAD                           ALL TIMES    "  1 53 44"                                sgn_50.head.obs                                                                 
 PIEZM1                                   CONTINUOUS  HEAD                           ALL TIMES    "  2 53 44"                                sgn_50.head.obs                                                                 
 PIEZM1                                   CONTINUOUS  HEAD                           ALL TIMES    "  3 53 44"                                sgn_50.head.obs                                                                 
 PIEZM2                                   CONTINUOUS  HEAD                           ALL TIMES    "  1 55 45"                                sgn_50.head.obs                                                                 
 PIEZM2                                   CONTINUOUS  HEAD                           ALL TIMES    "  2 55 45"                                sgn_50.head.obs                                                                 
 PIEZM2                                   CONTINUOUS  HEAD                           ALL TIMES    "  3 55 45"                                sgn_50.head.obs                                                                 
 PIEZM3                                   CONTINUOUS  HEAD                           ALL TIMES    "  1 61 48"                                sgn_50.head.obs                                                                 
 PIEZM3                                   CONTINUOUS  HEAD                           ALL TIMES    "  2 61 48"                                sgn_50.head.obs                                                                 
 PIEZM3                                   CONTINUOUS  HEAD                           ALL TIMES    "  3 61 48"                                sgn_50.head.obs                                                                 
 PIEZM5                                   CONTINUOUS  HEAD                           ALL TIMES    "  1 62 47"                                sgn_50.head.obs                                                                 
 PIEZM5                                   CONTINUOUS  HEAD                           ALL TIMES    "  2 62 47"                                sgn_50.head.obs                                                                 
 PIEZM5                                   CONTINUOUS  HEAD                           ALL TIMES    "  3 62 47"                                sgn_50.head.obs                                                                 
 PIEZM6                                   CONTINUOUS  HEAD                           ALL TIMES    "  1 63 45"                                sgn_50.head.obs                                                                 
 PIEZM6                                   CONTINUOUS  HEAD                           ALL TIMES    "  2 63 45"                                sgn_50.head.obs                                                                 
 PIEZM6                                   CONTINUOUS  HEAD                           ALL TIMES    "  3 63 45"                                sgn_50.head.obs                                                                 
 PIEZM7                                   CONTINUOUS  HEAD                           ALL TIMES    "  1 56 46"                                sgn_50.head.obs                                                                 
 PIEZM7                                   CONTINUOUS  HEAD                           ALL TIMES    "  2 56 46"                                sgn_50.head.obs                                                                 
 PIEZM7                                   CONTINUOUS  HEAD                           ALL TIMES    "  3 56 46"                                sgn_50.head.obs                                                                 
 PIEZM8                                   CONTINUOUS  HEAD                           ALL TIMES    "  1 59 48"                                sgn_50.head.obs                                                                 
 PIEZM8                                   CONTINUOUS  HEAD                           ALL TIMES    "  2 59 48"                                sgn_50.head.obs                                                                 
 PIEZM8                                   CONTINUOUS  HEAD                           ALL TIMES    "  3 59 48"                                sgn_50.head.obs                                                                 
 PP_202                                   CONTINUOUS  HEAD                           ALL TIMES    "  1 43 43"                                sgn_50.head.obs                                                                 
 PP_202                                   CONTINUOUS  HEAD                           ALL TIMES    "  2 43 43"                                sgn_50.head.obs                                                                 
 PP_202                                   CONTINUOUS  HEAD                           ALL TIMES    "  3 43 43"                                sgn_50.head.obs                                                                 
 PROF_1                                   CONTINUOUS  HEAD                           ALL TIMES    "  1 39 42"                                sgn_50.head.obs                                                                 
 PROF_1                                   CONTINUOUS  HEAD                           ALL TIMES    "  2 39 42"                                sgn_50.head.obs                                                                 
 PROF_1                                   CONTINUOUS  HEAD                           ALL TIMES    "  3 39 42"                                sgn_50.head.obs                                                                 
 PROF_11                                  CONTINUOUS  HEAD                           ALL TIMES    "  1 49 38"                                sgn_50.head.obs                                                                 
 PROF_11                                  CONTINUOUS  HEAD                           ALL TIMES    "  2 49 38"                                sgn_50.head.obs                                                                 
 PROF_11                                  CONTINUOUS  HEAD                           ALL TIMES    "  3 49 38"                                sgn_50.head.obs                                                                 
 PROF_2                                   CONTINUOUS  HEAD                           ALL TIMES    "  1 39 49"                                sgn_50.head.obs                                                                 
 PROF_2                                   CONTINUOUS  HEAD                           ALL TIMES    "  2 39 49"                                sgn_50.head.obs                                                                 
 PROF_2                                   CONTINUOUS  HEAD                           ALL TIMES    "  3 39 49"                                sgn_50.head.obs                                                                 
 PROF_21                                  CONTINUOUS  HEAD                           ALL TIMES    "  1 55 32"                                sgn_50.head.obs                                                                 
 PROF_21                                  CONTINUOUS  HEAD                           ALL TIMES    "  2 55 32"                                sgn_50.head.obs                                                                 
 PROF_21                                  CONTINUOUS  HEAD                           ALL TIMES    "  3 55 32"                                sgn_50.head.obs                                                                 
 PROF_22                                  CONTINUOUS  HEAD                           ALL TIMES    "  1 58 35"                                sgn_50.head.obs                                                                 
 PROF_22                                  CONTINUOUS  HEAD                           ALL TIMES    "  2 58 35"                                sgn_50.head.obs                                                                 
 PROF_22                                  CONTINUOUS  HEAD                           ALL TIMES    "  3 58 35"                                sgn_50.head.obs                                                                 
 PROF_3                                   CONTINUOUS  HEAD                           ALL TIMES    "  1 38 46"                                sgn_50.head.obs                                                                 
 PROF_3                                   CONTINUOUS  HEAD                           ALL TIMES    "  2 38 46"                                sgn_50.head.obs                                                                 
 PROF_3                                   CONTINUOUS  HEAD                           ALL TIMES    "  3 38 46"                                sgn_50.head.obs                                                                 
 PROF_4                                   CONTINUOUS  HEAD                           ALL TIMES    "  1 40 59"                                sgn_50.head.obs                                                                 
 PROF_4                                   CONTINUOUS  HEAD                           ALL TIMES    "  2 40 59"                                sgn_50.head.obs                                                                 
 PROF_4                                   CONTINUOUS  HEAD                           ALL TIMES    "  3 40 59"                                sgn_50.head.obs                                                                 
 PROF_5                                   CONTINUOUS  HEAD                           ALL TIMES    "  1 52 55"                                sgn_50.head.obs                                                                 
 PROF_5                                   CONTINUOUS  HEAD                           ALL TIMES    "  2 52 55"                                sgn_50.head.obs                                                                 
 PROF_5                                   CONTINUOUS  HEAD                           ALL TIMES    "  3 52 55"                                sgn_50.head.obs                                                                 
 PROF_6                                   CONTINUOUS  HEAD                           ALL TIMES    "  1 49 56"                                sgn_50.head.obs                                                                 
 PROF_6                                   CONTINUOUS  HEAD                           ALL TIMES    "  2 49 56"                                sgn_50.head.obs                                                                 
 PROF_6                                   CONTINUOUS  HEAD                           ALL TIMES    "  3 49 56"                                sgn_50.head.obs                                                                 
 PZ1                                      CONTINUOUS  HEAD                           ALL TIMES    "  1 54 5"                                 sgn_50.head.obs                                                                 
 PZ1                                      CONTINUOUS  HEAD                           ALL TIMES    "  2 54 5"                                 sgn_50.head.obs                                                                 
 PZ1                                      CONTINUOUS  HEAD                           ALL TIMES    "  3 54 5"                                 sgn_50.head.obs                                                                 
 PZ18                                     CONTINUOUS  HEAD                           ALL TIMES    "  1 58 37"                                sgn_50.head.obs                                                                 
 PZ18                                     CONTINUOUS  HEAD                           ALL TIMES    "  2 58 37"                                sgn_50.head.obs                                                                 
 PZ18                                     CONTINUOUS  HEAD                           ALL TIMES    "  3 58 37"                                sgn_50.head.obs                                                                 
 PZ20                                     CONTINUOUS  HEAD                           ALL TIMES    "  1 59 31"                                sgn_50.head.obs                                                                 
 PZ20                                     CONTINUOUS  HEAD                           ALL TIMES    "  2 59 31"                                sgn_50.head.obs                                                                 
 PZ20                                     CONTINUOUS  HEAD                           ALL TIMES    "  3 59 31"                                sgn_50.head.obs                                                                 
 PZ4                                      CONTINUOUS  HEAD                           ALL TIMES    "  1 46 39"                                sgn_50.head.obs                                                                 
 PZ4                                      CONTINUOUS  HEAD                           ALL TIMES    "  2 46 39"                                sgn_50.head.obs                                                                 
 PZ4                                      CONTINUOUS  HEAD                           ALL TIMES    "  3 46 39"                                sgn_50.head.obs                                                                 
 PZ7                                      CONTINUOUS  HEAD                           ALL TIMES    "  1 48 57"                                sgn_50.head.obs                                                                 
 PZ7                                      CONTINUOUS  HEAD                           ALL TIMES    "  2 48 57"                                sgn_50.head.obs                                                                 
 PZ7                                      CONTINUOUS  HEAD                           ALL TIMES    "  3 48 57"                                sgn_50.head.obs                                                                 
 PZ_ALER                                  CONTINUOUS  HEAD                           ALL TIMES    "  1 58 33"                                sgn_50.head.obs                                                                 
 PZ_ALER                                  CONTINUOUS  HEAD                           ALL TIMES    "  2 58 33"                                sgn_50.head.obs                                                                 
 PZ_ALER                                  CONTINUOUS  HEAD                           ALL TIMES    "  3 58 33"                                sgn_50.head.obs                                                                 
 PZB                                      CONTINUOUS  HEAD                           ALL TIMES    "  1 39 52"                                sgn_50.head.obs                                                                 
 PZB                                      CONTINUOUS  HEAD                           ALL TIMES    "  2 39 52"                                sgn_50.head.obs                                                                 
 PZB                                      CONTINUOUS  HEAD                           ALL TIMES    "  3 39 52"                                sgn_50.head.obs                                                                 
 PZP1_BIS                                 CONTINUOUS  HEAD                           ALL TIMES    "  1 43 40"                                sgn_50.head.obs                                                                 
 PZP1_BIS                                 CONTINUOUS  HEAD                           ALL TIMES    "  2 43 40"                                sgn_50.head.obs                                                                 
 PZP1_BIS                                 CONTINUOUS  HEAD                           ALL TIMES    "  3 43 40"                                sgn_50.head.obs                                                                 
 SP1_PZEST                                CONTINUOUS  HEAD                           ALL TIMES    "  1 53 28"                                sgn_50.head.obs                                                                 
 SP1_PZEST                                CONTINUOUS  HEAD                           ALL TIMES    "  2 53 28"                                sgn_50.head.obs                                                                 
 SP1_PZEST                                CONTINUOUS  HEAD                           ALL TIMES    "  3 53 28"                                sgn_50.head.obs                                                                 
 ----------------------------------------------------------------------------------------------------------------------------------------------------------------------------------------------------------------------------


    BINARY GRID INFORMATION WILL BE WRITTEN TO:
      UNIT NUMBER: 1033
      FILE NAME: E:\15_REPOS\d03_Beta-Me\02_Symple_______________________\models\sgn_mfsetup\sgn_50.dis.grb

 OPENED E:\15_REPOS\d03_Beta-Me\02_Symple_______________________\models\sgn_mfsetup\sgn_50.dis.grb
 FILE TYPE:DATA(BINARY)   UNIT 1033   STATUS:REPLACE             
 FORMAT:UNFORMATTED            ACCESS:STREAM              
 ACTION:READWRITE           

      THE LAST TIME STEP WILL BE PRINTED
      THE LAST TIME STEP WILL BE PRINTED
 # sgn_50 model version 0.post16.dev0+ge733124
 # File generated by Flopy version 3.10.0.dev1 on 02/01/2025 at 06:12:19.
 # via modflow-setup version 0.6.0 at 2025-02-01 06:12:19

 PROCESSING OC OPTIONS

    BUDGET INFORMATION WILL BE WRITTEN TO:
      UNIT NUMBER: 1034
      FILE NAME: sgn_50.cbc

 OPENED sgn_50.cbc
 FILE TYPE:DATA(BINARY)   UNIT 1034   STATUS:REPLACE             
 FORMAT:UNFORMATTED            ACCESS:STREAM              
 ACTION:READWRITE           

    HEAD INFORMATION WILL BE WRITTEN TO:
      UNIT NUMBER: 1035
      FILE NAME: sgn_50.hds

 OPENED sgn_50.hds
 FILE TYPE:DATA(BINARY)   UNIT 1035   STATUS:REPLACE             
 FORMAT:UNFORMATTED            ACCESS:STREAM              
 ACTION:READWRITE           

 END OF OC OPTIONS

The observation utility is active for "WEL_0"
 # sgn_50 model version 0.post16.dev0+ge733124
 # File generated by Flopy version 3.10.0.dev1 on 02/01/2025 at 06:12:19.
 # via modflow-setup version 0.6.0 at 2025-02-01 06:12:19

Processing observation options:


 
 FILE UNIT 1021 : ERROR CONVERTING "19/16__0" TO AN INTEGER IN LINE:
   19/16__0
