                                   MODFLOW 6
                U.S. GEOLOGICAL SURVEY MODULAR HYDROLOGIC MODEL
                   VERSION 6.3.0 release candidate 07/30/2021
                               ***DEVELOP MODE***

   MODFLOW 6 compiled Oct 27 2021 07:53:31 with IFORT compiler (ver. 20.21.1)

This software is preliminary or provisional and is subject to 
revision. It is being provided to meet the need for timely best 
science. The software has not received final approval by the U.S. 
Geological Survey (USGS). No warranty, expressed or implied, is made 
by the USGS or the U.S. Government as to the functionality of the 
software and related material nor shall the fact of release 
constitute any such warranty. The software is provided on the 
condition that neither the USGS nor the U.S. Government shall be held 
liable for any damages resulting from the authorized or unauthorized 
use of the software.


System command used to initiate simulation:
E:\15_REPOS\00_BETAMI\bin\mf6.exe

MODFLOW was compiled using uniform precision.

Real Variables
  KIND: 8
  TINY (smallest non-zero value):    2.225074-308
  HUGE (largest value):    1.797693+308
  PRECISION: 15
  BIT SIZE: 64

Integer Variables
  KIND: 4
  HUGE (largest value): 2147483647
  BIT SIZE: 32

Long Integer Variables
  KIND: 8
  HUGE (largest value): 9223372036854775807
  BIT SIZE: 64

Logical Variables
  KIND: 4
  BIT SIZE: 32
 

 OPENED mfsim.nam
 FILE TYPE:NAM   UNIT 1001   STATUS:OLD                 
 FORMAT:FORMATTED              ACCESS:SEQUENTIAL          
 ACTION:READ                

 # File generated by Flopy version 3.9.1 on 04/01/2025 at 21:59:56.

 READING SIMULATION OPTIONS
 END OF SIMULATION OPTIONS

 READING SIMULATION TIMING

 OPENED ex-gwf-advtidal.tdis
 FILE TYPE:TDIS   UNIT 1002   STATUS:OLD                 
 FORMAT:FORMATTED              ACCESS:SEQUENTIAL          
 ACTION:READ                


 TDIS -- TEMPORAL DISCRETIZATION PACKAGE,
 VERSION 1 : 11/13/2014 - INPUT READ FROM UNIT 1002
 # File generated by Flopy version 3.9.1 on 04/01/2025 at 21:59:56.
 PROCESSING TDIS OPTIONS
    SIMULATION TIME UNIT IS DAYS
 END OF TDIS OPTIONS
 PROCESSING TDIS DIMENSIONS
    4 STRESS PERIOD(S) IN SIMULATION
 END OF TDIS DIMENSIONS
 PROCESSING TDIS PERIODDATA


 STRESS PERIOD     LENGTH       TIME STEPS     MULTIPLIER FOR DELT
 ----------------------------------------------------------------------------
        1         1.000000          1                    1.000
        2         10.00000        120                    1.000
        3         10.00000        120                    1.000
        4         10.00000        120                    1.000
 END OF TDIS PERIODDATA
 END OF SIMULATION TIMING

 READING SIMULATION MODELS
    GWF6 model EX-GWF-ADVTIDAL will be created as model 1
 END OF SIMULATION MODELS

 READING SIMULATION EXCHANGES
 END OF SIMULATION EXCHANGES

 READING SOLUTIONGROUP

 Creating solution: SLN_1           

 OPENED ex-gwf-advtidal.ims
 FILE TYPE:IMS   UNIT 1018   STATUS:OLD                 
 FORMAT:FORMATTED              ACCESS:SEQUENTIAL          
 ACTION:READ                

 END OF SIMULATION SOLUTIONGROUP

PROCESSING MODEL CONNECTIONS

 IMS -- ITERATIVE MODEL SOLUTION PACKAGE, VERSION 6, 4/28/2017
         INPUT READ FROM UNIT 1018
 # File generated by Flopy version 3.9.1 on 04/01/2025 at 21:59:56.

 PROCESSING IMS OPTIONS
 END OF IMS OPTIONS

 PROCESSING IMS NONLINEAR
 END OF IMS NONLINEAR DATA
 ***UNDER-RELAXATION WILL NOT BE USED***
 
 ***IMS LINEAR SOLVER WILL BE USED***

 IMSLINEAR -- UNSTRUCTURED LINEAR SOLUTION PACKAGE, VERSION 8, 04/28/2017

 PROCESSING LINEAR DATA
 END OF LINEAR DATA
 
 OUTER ITERATION CONVERGENCE CRITERION    (DVCLOSE) =    0.100000E-08
 MAXIMUM NUMBER OF OUTER ITERATIONS        (MXITER) = 50
 SOLVER PRINTOUT INDEX                     (IPRIMS) = 0
 NONLINEAR ITERATION METHOD            (NONLINMETH) = 0
 LINEAR SOLUTION METHOD                   (LINMETH) = 1

       SOLUTION BY THE        CONJUGATE-GRADIENT       METHOD
 ------------------------------------------------------------------
 MAXIMUM OF 50 CALLS OF SOLUTION ROUTINE
 MAXIMUM OF 100 INTERNAL ITERATIONS PER CALL TO SOLUTION ROUTINE
 LINEAR ACCELERATION METHOD            = CG        
 MATRIX PRECONDITIONING TYPE           = INCOMPLETE LU       
 MATRIX SCALING APPROACH               = NO SCALING          
 MATRIX REORDERING APPROACH            = ORIGINAL ORDERING        
 NUMBER OF ORTHOGONALIZATIONS          = 0
 HEAD CHANGE CRITERION FOR CLOSURE     =    0.10000E-08
 RESIDUAL CHANGE CRITERION FOR CLOSURE =    0.10000E-05
 RESIDUAL CONVERGENCE OPTION           = 1
 RESIDUAL CONVERGENCE NORM             = INFINITY NORM S 
 RELAXATION FACTOR                     =    0.00000E+00



 
    Solving:  Stress period:     1    Time step:     1
 
1
                            STRESS PERIOD NO. 1, LENGTH =   1.000000    
                            -----------------------------------------------
                            NUMBER OF TIME STEPS = 1
                            MULTIPLIER FOR DELT =     1.000
                            INITIAL TIME STEP SIZE =   1.000000    
 
    Solving:  Stress period:     2    Time step:     1
 
1
                            STRESS PERIOD NO. 2, LENGTH =   10.00000    
                            -----------------------------------------------
                            NUMBER OF TIME STEPS = 120
                            MULTIPLIER FOR DELT =     1.000
                            INITIAL TIME STEP SIZE =  0.8333333E-01
 
    Solving:  Stress period:     2    Time step:     2
 
 
    Solving:  Stress period:     2    Time step:     3
 
 
    Solving:  Stress period:     2    Time step:     4
 
 
    Solving:  Stress period:     2    Time step:     5
 
 
    Solving:  Stress period:     2    Time step:     6
 
 
    Solving:  Stress period:     2    Time step:     7
 
 
    Solving:  Stress period:     2    Time step:     8
 
 
    Solving:  Stress period:     2    Time step:     9
 
 
    Solving:  Stress period:     2    Time step:    10
 
 
    Solving:  Stress period:     2    Time step:    11
 
 
    Solving:  Stress period:     2    Time step:    12
 
 
    Solving:  Stress period:     2    Time step:    13
 
 
    Solving:  Stress period:     2    Time step:    14
 
 
    Solving:  Stress period:     2    Time step:    15
 
 
    Solving:  Stress period:     2    Time step:    16
 
 
    Solving:  Stress period:     2    Time step:    17
 
 
    Solving:  Stress period:     2    Time step:    18
 
 
    Solving:  Stress period:     2    Time step:    19
 
 
    Solving:  Stress period:     2    Time step:    20
 
 
    Solving:  Stress period:     2    Time step:    21
 
 
    Solving:  Stress period:     2    Time step:    22
 
 
    Solving:  Stress period:     2    Time step:    23
 
 
    Solving:  Stress period:     2    Time step:    24
 
 
    Solving:  Stress period:     2    Time step:    25
 
 
    Solving:  Stress period:     2    Time step:    26
 
 
    Solving:  Stress period:     2    Time step:    27
 
 
    Solving:  Stress period:     2    Time step:    28
 
 
    Solving:  Stress period:     2    Time step:    29
 
 
    Solving:  Stress period:     2    Time step:    30
 
 
    Solving:  Stress period:     2    Time step:    31
 
 
    Solving:  Stress period:     2    Time step:    32
 
 
    Solving:  Stress period:     2    Time step:    33
 
 
    Solving:  Stress period:     2    Time step:    34
 
 
    Solving:  Stress period:     2    Time step:    35
 
 
    Solving:  Stress period:     2    Time step:    36
 
 
    Solving:  Stress period:     2    Time step:    37
 
 
    Solving:  Stress period:     2    Time step:    38
 
 
    Solving:  Stress period:     2    Time step:    39
 
 
    Solving:  Stress period:     2    Time step:    40
 
 
    Solving:  Stress period:     2    Time step:    41
 
 
    Solving:  Stress period:     2    Time step:    42
 
 
    Solving:  Stress period:     2    Time step:    43
 
 
    Solving:  Stress period:     2    Time step:    44
 
 
    Solving:  Stress period:     2    Time step:    45
 
 
    Solving:  Stress period:     2    Time step:    46
 
 
    Solving:  Stress period:     2    Time step:    47
 
 
    Solving:  Stress period:     2    Time step:    48
 
 
    Solving:  Stress period:     2    Time step:    49
 
 
    Solving:  Stress period:     2    Time step:    50
 
 
    Solving:  Stress period:     2    Time step:    51
 
 
    Solving:  Stress period:     2    Time step:    52
 
 
    Solving:  Stress period:     2    Time step:    53
 
 
    Solving:  Stress period:     2    Time step:    54
 
 
    Solving:  Stress period:     2    Time step:    55
 
 
    Solving:  Stress period:     2    Time step:    56
 
 
    Solving:  Stress period:     2    Time step:    57
 
 
    Solving:  Stress period:     2    Time step:    58
 
 
    Solving:  Stress period:     2    Time step:    59
 
 
    Solving:  Stress period:     2    Time step:    60
 
 
    Solving:  Stress period:     2    Time step:    61
 
 
    Solving:  Stress period:     2    Time step:    62
 
 
    Solving:  Stress period:     2    Time step:    63
 
 
    Solving:  Stress period:     2    Time step:    64
 
 
    Solving:  Stress period:     2    Time step:    65
 
 
    Solving:  Stress period:     2    Time step:    66
 
 
    Solving:  Stress period:     2    Time step:    67
 
 
    Solving:  Stress period:     2    Time step:    68
 
 
    Solving:  Stress period:     2    Time step:    69
 
 
    Solving:  Stress period:     2    Time step:    70
 
 
    Solving:  Stress period:     2    Time step:    71
 
 
    Solving:  Stress period:     2    Time step:    72
 
 
    Solving:  Stress period:     2    Time step:    73
 
 
    Solving:  Stress period:     2    Time step:    74
 
 
    Solving:  Stress period:     2    Time step:    75
 
 
    Solving:  Stress period:     2    Time step:    76
 
 
    Solving:  Stress period:     2    Time step:    77
 
 
    Solving:  Stress period:     2    Time step:    78
 
 
    Solving:  Stress period:     2    Time step:    79
 
 
    Solving:  Stress period:     2    Time step:    80
 
 
    Solving:  Stress period:     2    Time step:    81
 
 
    Solving:  Stress period:     2    Time step:    82
 
 
    Solving:  Stress period:     2    Time step:    83
 
 
    Solving:  Stress period:     2    Time step:    84
 
 
    Solving:  Stress period:     2    Time step:    85
 
 
    Solving:  Stress period:     2    Time step:    86
 
 
    Solving:  Stress period:     2    Time step:    87
 
 
    Solving:  Stress period:     2    Time step:    88
 
 
    Solving:  Stress period:     2    Time step:    89
 
 
    Solving:  Stress period:     2    Time step:    90
 
 
    Solving:  Stress period:     2    Time step:    91
 
 
    Solving:  Stress period:     2    Time step:    92
 
 
    Solving:  Stress period:     2    Time step:    93
 
 
    Solving:  Stress period:     2    Time step:    94
 
 
    Solving:  Stress period:     2    Time step:    95
 
 
    Solving:  Stress period:     2    Time step:    96
 
 
    Solving:  Stress period:     2    Time step:    97
 
 
    Solving:  Stress period:     2    Time step:    98
 
 
    Solving:  Stress period:     2    Time step:    99
 
 
    Solving:  Stress period:     2    Time step:   100
 
 
    Solving:  Stress period:     2    Time step:   101
 
 
    Solving:  Stress period:     2    Time step:   102
 
 
    Solving:  Stress period:     2    Time step:   103
 
 
    Solving:  Stress period:     2    Time step:   104
 
 
    Solving:  Stress period:     2    Time step:   105
 
 
    Solving:  Stress period:     2    Time step:   106
 
 
    Solving:  Stress period:     2    Time step:   107
 
 
    Solving:  Stress period:     2    Time step:   108
 
 
    Solving:  Stress period:     2    Time step:   109
 
 
    Solving:  Stress period:     2    Time step:   110
 
 
    Solving:  Stress period:     2    Time step:   111
 
 
    Solving:  Stress period:     2    Time step:   112
 
 
    Solving:  Stress period:     2    Time step:   113
 
 
    Solving:  Stress period:     2    Time step:   114
 
 
    Solving:  Stress period:     2    Time step:   115
 
 
    Solving:  Stress period:     2    Time step:   116
 
 
    Solving:  Stress period:     2    Time step:   117
 
 
    Solving:  Stress period:     2    Time step:   118
 
 
    Solving:  Stress period:     2    Time step:   119
 
 
    Solving:  Stress period:     2    Time step:   120
 
 
    Solving:  Stress period:     3    Time step:     1
 
1
                            STRESS PERIOD NO. 3, LENGTH =   10.00000    
                            -----------------------------------------------
                            NUMBER OF TIME STEPS = 120
                            MULTIPLIER FOR DELT =     1.000
                            INITIAL TIME STEP SIZE =  0.8333333E-01
 
    Solving:  Stress period:     3    Time step:     2
 
 
    Solving:  Stress period:     3    Time step:     3
 
 
    Solving:  Stress period:     3    Time step:     4
 
 
    Solving:  Stress period:     3    Time step:     5
 
 
    Solving:  Stress period:     3    Time step:     6
 
 
    Solving:  Stress period:     3    Time step:     7
 
 
    Solving:  Stress period:     3    Time step:     8
 
 
    Solving:  Stress period:     3    Time step:     9
 
 
    Solving:  Stress period:     3    Time step:    10
 
 
    Solving:  Stress period:     3    Time step:    11
 
 
    Solving:  Stress period:     3    Time step:    12
 
 
    Solving:  Stress period:     3    Time step:    13
 
 
    Solving:  Stress period:     3    Time step:    14
 
 
    Solving:  Stress period:     3    Time step:    15
 
 
    Solving:  Stress period:     3    Time step:    16
 
 
    Solving:  Stress period:     3    Time step:    17
 
 
    Solving:  Stress period:     3    Time step:    18
 
 
    Solving:  Stress period:     3    Time step:    19
 
 
    Solving:  Stress period:     3    Time step:    20
 
 
    Solving:  Stress period:     3    Time step:    21
 
 
    Solving:  Stress period:     3    Time step:    22
 
 
    Solving:  Stress period:     3    Time step:    23
 
 
    Solving:  Stress period:     3    Time step:    24
 
 
    Solving:  Stress period:     3    Time step:    25
 
 
    Solving:  Stress period:     3    Time step:    26
 
 
    Solving:  Stress period:     3    Time step:    27
 
 
    Solving:  Stress period:     3    Time step:    28
 
 
    Solving:  Stress period:     3    Time step:    29
 
 
    Solving:  Stress period:     3    Time step:    30
 
 
    Solving:  Stress period:     3    Time step:    31
 
 
    Solving:  Stress period:     3    Time step:    32
 
 
    Solving:  Stress period:     3    Time step:    33
 
 
    Solving:  Stress period:     3    Time step:    34
 
 
    Solving:  Stress period:     3    Time step:    35
 
 
    Solving:  Stress period:     3    Time step:    36
 
 
    Solving:  Stress period:     3    Time step:    37
 
 
    Solving:  Stress period:     3    Time step:    38
 
 
    Solving:  Stress period:     3    Time step:    39
 
 
    Solving:  Stress period:     3    Time step:    40
 
 
    Solving:  Stress period:     3    Time step:    41
 
 
    Solving:  Stress period:     3    Time step:    42
 
 
    Solving:  Stress period:     3    Time step:    43
 
 
    Solving:  Stress period:     3    Time step:    44
 
 
    Solving:  Stress period:     3    Time step:    45
 
 
    Solving:  Stress period:     3    Time step:    46
 
 
    Solving:  Stress period:     3    Time step:    47
 
 
    Solving:  Stress period:     3    Time step:    48
 
 
    Solving:  Stress period:     3    Time step:    49
 
 
    Solving:  Stress period:     3    Time step:    50
 
 
    Solving:  Stress period:     3    Time step:    51
 
 
    Solving:  Stress period:     3    Time step:    52
 
 
    Solving:  Stress period:     3    Time step:    53
 
 
    Solving:  Stress period:     3    Time step:    54
 
 
    Solving:  Stress period:     3    Time step:    55
 
 
    Solving:  Stress period:     3    Time step:    56
 
 
    Solving:  Stress period:     3    Time step:    57
 
 
    Solving:  Stress period:     3    Time step:    58
 
 
    Solving:  Stress period:     3    Time step:    59
 
 
    Solving:  Stress period:     3    Time step:    60
 
 
    Solving:  Stress period:     3    Time step:    61
 
 
    Solving:  Stress period:     3    Time step:    62
 
 
    Solving:  Stress period:     3    Time step:    63
 
 
    Solving:  Stress period:     3    Time step:    64
 
 
    Solving:  Stress period:     3    Time step:    65
 
 
    Solving:  Stress period:     3    Time step:    66
 
 
    Solving:  Stress period:     3    Time step:    67
 
 
    Solving:  Stress period:     3    Time step:    68
 
 
    Solving:  Stress period:     3    Time step:    69
 
 
    Solving:  Stress period:     3    Time step:    70
 
 
    Solving:  Stress period:     3    Time step:    71
 
 
    Solving:  Stress period:     3    Time step:    72
 
 
    Solving:  Stress period:     3    Time step:    73
 
 
    Solving:  Stress period:     3    Time step:    74
 
 
    Solving:  Stress period:     3    Time step:    75
 
 
    Solving:  Stress period:     3    Time step:    76
 
 
    Solving:  Stress period:     3    Time step:    77
 
 
    Solving:  Stress period:     3    Time step:    78
 
 
    Solving:  Stress period:     3    Time step:    79
 
 
    Solving:  Stress period:     3    Time step:    80
 
 
    Solving:  Stress period:     3    Time step:    81
 
 
    Solving:  Stress period:     3    Time step:    82
 
 
    Solving:  Stress period:     3    Time step:    83
 
 
    Solving:  Stress period:     3    Time step:    84
 
 
    Solving:  Stress period:     3    Time step:    85
 
 
    Solving:  Stress period:     3    Time step:    86
 
 
    Solving:  Stress period:     3    Time step:    87
 
 
    Solving:  Stress period:     3    Time step:    88
 
 
    Solving:  Stress period:     3    Time step:    89
 
 
    Solving:  Stress period:     3    Time step:    90
 
 
    Solving:  Stress period:     3    Time step:    91
 
 
    Solving:  Stress period:     3    Time step:    92
 
 
    Solving:  Stress period:     3    Time step:    93
 
 
    Solving:  Stress period:     3    Time step:    94
 
 
    Solving:  Stress period:     3    Time step:    95
 
 
    Solving:  Stress period:     3    Time step:    96
 
 
    Solving:  Stress period:     3    Time step:    97
 
 
    Solving:  Stress period:     3    Time step:    98
 
 
    Solving:  Stress period:     3    Time step:    99
 
 
    Solving:  Stress period:     3    Time step:   100
 
 
    Solving:  Stress period:     3    Time step:   101
 
 
    Solving:  Stress period:     3    Time step:   102
 
 
    Solving:  Stress period:     3    Time step:   103
 
 
    Solving:  Stress period:     3    Time step:   104
 
 
    Solving:  Stress period:     3    Time step:   105
 
 
    Solving:  Stress period:     3    Time step:   106
 
 
    Solving:  Stress period:     3    Time step:   107
 
 
    Solving:  Stress period:     3    Time step:   108
 
 
    Solving:  Stress period:     3    Time step:   109
 
 
    Solving:  Stress period:     3    Time step:   110
 
 
    Solving:  Stress period:     3    Time step:   111
 
 
    Solving:  Stress period:     3    Time step:   112
 
 
    Solving:  Stress period:     3    Time step:   113
 
 
    Solving:  Stress period:     3    Time step:   114
 
 
    Solving:  Stress period:     3    Time step:   115
 
 
    Solving:  Stress period:     3    Time step:   116
 
 
    Solving:  Stress period:     3    Time step:   117
 
 
    Solving:  Stress period:     3    Time step:   118
 
 
    Solving:  Stress period:     3    Time step:   119
 
 
    Solving:  Stress period:     3    Time step:   120
 
 
    Solving:  Stress period:     4    Time step:     1
 
1
                            STRESS PERIOD NO. 4, LENGTH =   10.00000    
                            -----------------------------------------------
                            NUMBER OF TIME STEPS = 120
                            MULTIPLIER FOR DELT =     1.000
                            INITIAL TIME STEP SIZE =  0.8333333E-01
 
    Solving:  Stress period:     4    Time step:     2
 
 
    Solving:  Stress period:     4    Time step:     3
 
 
    Solving:  Stress period:     4    Time step:     4
 
 
    Solving:  Stress period:     4    Time step:     5
 
 
    Solving:  Stress period:     4    Time step:     6
 
 
    Solving:  Stress period:     4    Time step:     7
 
 
    Solving:  Stress period:     4    Time step:     8
 
 
    Solving:  Stress period:     4    Time step:     9
 
 
    Solving:  Stress period:     4    Time step:    10
 
 
    Solving:  Stress period:     4    Time step:    11
 
 
    Solving:  Stress period:     4    Time step:    12
 
 
    Solving:  Stress period:     4    Time step:    13
 
 
    Solving:  Stress period:     4    Time step:    14
 
 
    Solving:  Stress period:     4    Time step:    15
 
 
    Solving:  Stress period:     4    Time step:    16
 
 
    Solving:  Stress period:     4    Time step:    17
 
 
    Solving:  Stress period:     4    Time step:    18
 
 
    Solving:  Stress period:     4    Time step:    19
 
 
    Solving:  Stress period:     4    Time step:    20
 
 
    Solving:  Stress period:     4    Time step:    21
 
 
    Solving:  Stress period:     4    Time step:    22
 
 
    Solving:  Stress period:     4    Time step:    23
 
 
    Solving:  Stress period:     4    Time step:    24
 
 
    Solving:  Stress period:     4    Time step:    25
 
 
    Solving:  Stress period:     4    Time step:    26
 
 
    Solving:  Stress period:     4    Time step:    27
 
 
    Solving:  Stress period:     4    Time step:    28
 
 
    Solving:  Stress period:     4    Time step:    29
 
 
    Solving:  Stress period:     4    Time step:    30
 
 
    Solving:  Stress period:     4    Time step:    31
 
 
    Solving:  Stress period:     4    Time step:    32
 
 
    Solving:  Stress period:     4    Time step:    33
 
 
    Solving:  Stress period:     4    Time step:    34
 
 
    Solving:  Stress period:     4    Time step:    35
 
 
    Solving:  Stress period:     4    Time step:    36
 
 
    Solving:  Stress period:     4    Time step:    37
 
 
    Solving:  Stress period:     4    Time step:    38
 
 
    Solving:  Stress period:     4    Time step:    39
 
 
    Solving:  Stress period:     4    Time step:    40
 
 
    Solving:  Stress period:     4    Time step:    41
 
 
    Solving:  Stress period:     4    Time step:    42
 
 
    Solving:  Stress period:     4    Time step:    43
 
 
    Solving:  Stress period:     4    Time step:    44
 
 
    Solving:  Stress period:     4    Time step:    45
 
 
    Solving:  Stress period:     4    Time step:    46
 
 
    Solving:  Stress period:     4    Time step:    47
 
 
    Solving:  Stress period:     4    Time step:    48
 
 
    Solving:  Stress period:     4    Time step:    49
 
 
    Solving:  Stress period:     4    Time step:    50
 
 
    Solving:  Stress period:     4    Time step:    51
 
 
    Solving:  Stress period:     4    Time step:    52
 
 
    Solving:  Stress period:     4    Time step:    53
 
 
    Solving:  Stress period:     4    Time step:    54
 
 
    Solving:  Stress period:     4    Time step:    55
 
 
    Solving:  Stress period:     4    Time step:    56
 
 
    Solving:  Stress period:     4    Time step:    57
 
 
    Solving:  Stress period:     4    Time step:    58
 
 
    Solving:  Stress period:     4    Time step:    59
 
 
    Solving:  Stress period:     4    Time step:    60
 
 
    Solving:  Stress period:     4    Time step:    61
 
 
    Solving:  Stress period:     4    Time step:    62
 
 
    Solving:  Stress period:     4    Time step:    63
 
 
    Solving:  Stress period:     4    Time step:    64
 
 
    Solving:  Stress period:     4    Time step:    65
 
 
    Solving:  Stress period:     4    Time step:    66
 
 
    Solving:  Stress period:     4    Time step:    67
 
 
    Solving:  Stress period:     4    Time step:    68
 
 
    Solving:  Stress period:     4    Time step:    69
 
 
    Solving:  Stress period:     4    Time step:    70
 
 
    Solving:  Stress period:     4    Time step:    71
 
 
    Solving:  Stress period:     4    Time step:    72
 
 
    Solving:  Stress period:     4    Time step:    73
 
 
    Solving:  Stress period:     4    Time step:    74
 
 
    Solving:  Stress period:     4    Time step:    75
 
 
    Solving:  Stress period:     4    Time step:    76
 
 
    Solving:  Stress period:     4    Time step:    77
 
 
    Solving:  Stress period:     4    Time step:    78
 
 
    Solving:  Stress period:     4    Time step:    79
 
 
    Solving:  Stress period:     4    Time step:    80
 
 
    Solving:  Stress period:     4    Time step:    81
 
 
    Solving:  Stress period:     4    Time step:    82
 
 
    Solving:  Stress period:     4    Time step:    83
 
 
    Solving:  Stress period:     4    Time step:    84
 
 
    Solving:  Stress period:     4    Time step:    85
 
 
    Solving:  Stress period:     4    Time step:    86
 
 
    Solving:  Stress period:     4    Time step:    87
 
 
    Solving:  Stress period:     4    Time step:    88
 
 
    Solving:  Stress period:     4    Time step:    89
 
 
    Solving:  Stress period:     4    Time step:    90
 
 
    Solving:  Stress period:     4    Time step:    91
 
 
    Solving:  Stress period:     4    Time step:    92
 
 
    Solving:  Stress period:     4    Time step:    93
 
 
    Solving:  Stress period:     4    Time step:    94
 
 
    Solving:  Stress period:     4    Time step:    95
 
 
    Solving:  Stress period:     4    Time step:    96
 
 
    Solving:  Stress period:     4    Time step:    97
 
 
    Solving:  Stress period:     4    Time step:    98
 
 
    Solving:  Stress period:     4    Time step:    99
 
 
    Solving:  Stress period:     4    Time step:   100
 
 
    Solving:  Stress period:     4    Time step:   101
 
 
    Solving:  Stress period:     4    Time step:   102
 
 
    Solving:  Stress period:     4    Time step:   103
 
 
    Solving:  Stress period:     4    Time step:   104
 
 
    Solving:  Stress period:     4    Time step:   105
 
 
    Solving:  Stress period:     4    Time step:   106
 
 
    Solving:  Stress period:     4    Time step:   107
 
 
    Solving:  Stress period:     4    Time step:   108
 
 
    Solving:  Stress period:     4    Time step:   109
 
 
    Solving:  Stress period:     4    Time step:   110
 
 
    Solving:  Stress period:     4    Time step:   111
 
 
    Solving:  Stress period:     4    Time step:   112
 
 
    Solving:  Stress period:     4    Time step:   113
 
 
    Solving:  Stress period:     4    Time step:   114
 
 
    Solving:  Stress period:     4    Time step:   115
 
 
    Solving:  Stress period:     4    Time step:   116
 
 
    Solving:  Stress period:     4    Time step:   117
 
 
    Solving:  Stress period:     4    Time step:   118
 
 
    Solving:  Stress period:     4    Time step:   119
 
 
    Solving:  Stress period:     4    Time step:   120
 


 Solution SLN_1 summary
 ----------------------------------------------------------------------
 Total formulate time:  .1250000000000000 seconds
 Total solution time:   .7812500000000000E-01 seconds


 MEMORY MANAGER TOTAL STORAGE BY DATA TYPE, IN KILOBYTES
 -------------------------------
                    ALLOCATED   
 DATA TYPE           MEMORY     
 -------------------------------
 Character        12.601000     
 Logical          4.40000000E-02
 Integer          94.988000     
 Real             226.24000     
 -------------------------------
 Total            333.87300     
 -------------------------------


 
 Run end date and time (yyyy/mm/dd hh:mm:ss): 2025/04/01 21:59:58
 Elapsed run time:  2.272 Seconds
 Normal termination of simulation.
