 LISTING FILE: multiscale1_mt.list
                         UNIT  16

 OPENING mt3d_link.ftl
 FILE TYPE:FTL   UNIT  10

 OPENING multiscale1_mt.btn
 FILE TYPE:BTN   UNIT  31

 OPENING multiscale1_mt.adv
 FILE TYPE:ADV   UNIT  32

 OPENING multiscale1_mt.dsp
 FILE TYPE:DSP   UNIT  33

 OPENING multiscale1_mt.ssm
 FILE TYPE:SSM   UNIT  34

 OPENING multiscale1_mt.gcg
 FILE TYPE:GCG   UNIT  35

                              +++++++++++++++++++++++++++++++++++++++++++++++++++++++++++++++++++++++
                              +                                                                     +
                              +                              MT3D-USGS                              +
                              +             A Modular 3D Multi-Species Transport Model              +
                              +    For Simulation of Advection, Dispersion and Chemical Reactions   +
                              +                of Contaminants in Groundwater Systems               +
                              +                                                                     +
                              +++++++++++++++++++++++++++++++++++++++++++++++++++++++++++++++++++++++

  ----- 
 | M T | ## BTN for MT3DMS, generated by Flopy.                                          
 | 3 D | ##                                                                              
  ----- 
 THE TRANSPORT MODEL CONSISTS OF     1 LAYER(S)   36 ROW(S)  120 COLUMN(S)
 NUMBER OF STRESS PERIOD(S) FOR TRANSPORT SIMULATION =    2
 NUMBER OF ALL COMPONENTS INCLUDED IN SIMULATION =    1
 NUMBER OF MOBILE COMPONENTS INCLUDED IN SIMULATION =    1
 UNIT FOR TIME IS D   ;  UNIT FOR LENGTH IS M   ;  UNIT FOR MASS IS KG  
 OPTIONAL PACKAGES INCLUDED IN CURRENT SIMULATION:
  o ADV   ON UNIT 32
  o DSP   ON UNIT 33
  o SSM   ON UNIT 34
  o GCG   ON UNIT 35


 BTN1 -- BASIC TRANSPORT PACKAGE, VERSION 1, MAY 2016, INPUT READ FROM UNIT 31

 BTN PACKAGE KEYWORD INPUT: 
 DRYCELL OPTION NOT SET
  DRY CELL BUDGET OMITTED FROM GLOBAL MASS BALANCE SUMMARY

 LAYER NUMBER  AQUIFER TYPE
 ------------  ------------
       1            0
                                       WIDTH ALONG ROWS (DELR)  =  0.2500000    
                                       WIDTH ALONG COLS (DELC)  =   1.000000    
                                       TOP ELEV. OF 1ST LAYER   =   0.000000    

                     CELL THICKNESS (DZ)      FOR LAYER  1 READ ON UNIT  31 USING FORMAT: "         (120E15.6) "
                     ------------------------------------------------------------------------------------------
                                       POROSITY                 =  0.3000000     FOR LAYER  1

                     CONCN. BOUNDARY ARRAY    FOR LAYER  1 READ ON UNIT  31 USING FORMAT: "           (120I10) "
                     ------------------------------------------------------------------------------------------

                     INITIAL CONC.: COMP.  01 FOR LAYER  1 READ ON UNIT  31 USING FORMAT: "         (120E15.6) "
                     ------------------------------------------------------------------------------------------

 VALUE INDICATING INACTIVE CONCENTRATION CELLS =   0.1000000E+31
 MINIMUM SATURATED THICKNESS [THKMIN] ALLOWED =  0.0100000 OF TOTAL CELL THICKNESS


 OUTPUT CONTROL OPTIONS
 ----------------------

 DO NOT PRINT CELL CONCENTRATION
 DO NOT PRINT PARTICLE NUMBER IN EACH CELL
 DO NOT PRINT RETARDATION FACTOR
 DO NOT PRINT DISPERSION COEFFICIENT
 SAVE DISSOLVED PHASE CONCENTRATIONS IN UNFORMATTED FILES [MT3Dnnn.UCN]
  FOR EACH SPECIES ON UNITS 201 AND ABOVE

 NUMBER OF TIMES AT WHICH SIMULATION RESULTS ARE SAVED =  100
 TOTAL ELAPSED TIMES AT WHICH SIMULATION RESULTS ARE SAVED: 
    0.0000       11.020       22.040       33.060       44.080       55.100       66.120       77.140    
    88.160       99.180       110.20       121.22       132.24       143.26       154.28       165.30    
    176.32       187.34       198.36       209.38       220.40       231.42       242.44       253.46    
    264.48       275.50       286.52       297.54       308.56       319.58       330.60       341.62    
    352.64       363.66       374.68       385.70       396.72       407.74       418.76       429.78    
    440.80       451.82       462.84       473.86       484.88       495.90       506.92       517.94    
    528.96       539.98       551.00       562.02       573.04       584.06       595.08       606.10    
    617.12       628.14       639.16       650.18       661.20       672.22       683.24       694.26    
    705.28       716.30       727.32       738.34       749.36       760.38       771.40       782.42    
    793.44       804.46       815.48       826.50       837.52       848.54       859.56       870.58    
    881.60       892.62       903.64       914.66       925.68       936.70       947.72       958.74    
    969.76       980.78       991.80       1002.8       1013.8       1024.9       1035.9       1046.9    
    1057.9       1068.9       1080.0       1091.0    

 NUMBER OF OBSERVATION POINTS =    0

 SAVE ONE-LINE SUMMARY OF MASS BUDGETS IN FILES [MT3Dnnn.MAS]
  FOR EACH SPECIES ON UNITS 601 AND ABOVE, EVERY  1 TRANSPORT STEPS

 MAXIMUM LENGTH ALONG THE X (J) AXIS =   30.00000    
 MAXIMUM LENGTH ALONG THE Y (I) AXIS =   36.00000    
 MAXIMUM LENGTH ALONG THE Z (K) AXIS =  0.2500000    
 FMI1 -- FLOW MODEL INTERFACE PACKAGE, VERSION 1, MAY 2016, INPUT READ FROM UNIT 10
 FLOW MODEL IS STEADY-STATE
 FLOW MODEL CONTAINS CONSTANT-HEAD CELLS


 ADV1 -- ADVECTION PACKAGE, VERSION 1, MAY 2016, INPUT READ FROM UNIT 32
 ADVECTION IS SOLVED WITH THE ULTIMATE SCHEME
 COURANT NUMBER ALLOWED IN SOLVING THE ADVECTION TERM = 0.750    


 ADVECTION SOLUTION OPTIONS
 --------------------------

 ADVECTION IS SOLVED WITH THE ULTIMATE SCHEME
 COURANT NUMBER ALLOWED IN SOLVING THE ADVECTION TERM = 0.750    

 DSP1 -- DISPERSION PACKAGE, VERSION 1, MAY 2016, INPUT READ FROM UNIT 33


 DISPERSION INPUT PARAMETERS
 ---------------------------

                                       LONG. DISPERSIVITY (AL)  =   1.000000     FOR LAYER  1
                                       H. TRANS./LONG. DISP.    =  0.1000000    
                                       V. TRANS./LONG. DISP.    =  0.1000000E-01
                                       DIFFUSION COEFFICIENT    =  0.1000000E-08

 SSM1 -- SINK & SOURCE MIXING PACKAGE, VERSION 1, MAY 2016, INPUT READ FROM UNIT 34
 HEADER LINE OF THE SSM PACKAGE INPUT FILE:
  F F F F F F F F F F F F F F F F                                        
 MAJOR STRESS COMPONENTS PRESENT IN THE FLOW MODEL:
 MAXIMUM NUMBER OF POINT SINKS/SOURCES =     144

 GCG1 -- GENERALIZED CONJUGATE GRADIENT SOLVER PACKAGE, VERSION 1, OCTOBER 2010 INPUT READ FROM UNIT 35
 MAXIMUM OF    1 OUTER ITERATIONS
        AND   50 INNER ITERATIONS ALLOWED FOR CLOSURE
 THE PRECONDITIONING TYPE SELECTED IS MODIFIED INCOMPLETE CHOLESKY (MIC).
 DISPERSION CROSS TERMS LUMPED INTO RIGHT-HAND-SIDE



                                               SOLUTION BY THE GENERALIZED CONJUGATE GRADIENT METHOD
                                               -----------------------------------------------------
                                     MAXIMUM OUTER ITERATIONS ALLOWED FOR CLOSURE =        1
                                     MAXIMUM INNER ITERATIONS ALLOWED FOR CLOSURE =       50
                                                    PRECONDITIONING TYPE SELECTED =    3
                                                           ACCELERATION PARAMETER =     1.0000    
                                       CONCENTRATION CHANGE CRITERION FOR CLOSURE =    0.10000E-04
                                       GCG CONCENTRATION CHANGE PRINTOUT INTERVAL =      999


                                   ++++++++++++++++++++++++++++++++++++++++++++++++++++++++++++++
                                                       STRESS PERIOD NO.  001
                                   ++++++++++++++++++++++++++++++++++++++++++++++++++++++++++++++


 LENGTH OF CURRENT STRESS PERIOD =   7.000000    
 NUMBER OF TIME STEPS FOR CURRENT STRESS PERIOD =    1
 TIME STEP MULTIPLIER USED IN FLOW SOLUTION =   1.000000    

 ***Type of Transport Simulation is TRANSIENT

 USER-SPECIFIED TRANSPORT STEPSIZE =   0.000000    D   
 MAXIMUM NUMBER OF TRANSPORT STEPS ALLOWED  IN ONE FLOW TIME STEP =     50000
 MULTIPLIER FOR SUCCESSIVE TRANSPORT STEPS  [USED IN IMPLICIT SCHEMES] =     1.000
 MAXIMUM TRANSPORT STEP SIZE  [USED IN IMPLICIT SCHEMES] =   0.000000    D   

       NO    LAYER   ROW   COLUMN   CONCENTRATION       TYPE            COMPONENT
       1       1       1       1       1.000000         CONSTANT CONC.      1
       2       1       2       1       1.000000         CONSTANT CONC.      1
       3       1       3       1       1.000000         CONSTANT CONC.      1
       4       1       4       1       1.000000         CONSTANT CONC.      1
       5       1       5       1       1.000000         CONSTANT CONC.      1
       6       1       6       1       1.000000         CONSTANT CONC.      1
       7       1       7       1       1.000000         CONSTANT CONC.      1
       8       1       8       1       1.000000         CONSTANT CONC.      1
       9       1       9       1       1.000000         CONSTANT CONC.      1
      10       1      10       1       1.000000         CONSTANT CONC.      1
      11       1      11       1       1.000000         CONSTANT CONC.      1
      12       1      12       1       1.000000         CONSTANT CONC.      1
      13       1      13       1       1.000000         CONSTANT CONC.      1
      14       1      14       1       1.000000         CONSTANT CONC.      1
      15       1      15       1       1.000000         CONSTANT CONC.      1
      16       1      16       1       1.000000         CONSTANT CONC.      1
      17       1      17       1       1.000000         CONSTANT CONC.      1
      18       1      18       1       1.000000         CONSTANT CONC.      1
      19       1      19       1       1.000000         CONSTANT CONC.      1
      20       1      20       1       1.000000         CONSTANT CONC.      1
      21       1      21       1       1.000000         CONSTANT CONC.      1
      22       1      22       1       1.000000         CONSTANT CONC.      1
      23       1      23       1       1.000000         CONSTANT CONC.      1
      24       1      24       1       1.000000         CONSTANT CONC.      1
      25       1      25       1       1.000000         CONSTANT CONC.      1
      26       1      26       1       1.000000         CONSTANT CONC.      1
      27       1      27       1       1.000000         CONSTANT CONC.      1
      28       1      28       1       1.000000         CONSTANT CONC.      1
      29       1      29       1       1.000000         CONSTANT CONC.      1
      30       1      30       1       1.000000         CONSTANT CONC.      1
      31       1      31       1       1.000000         CONSTANT CONC.      1
      32       1      32       1       1.000000         CONSTANT CONC.      1
      33       1      33       1       1.000000         CONSTANT CONC.      1
      34       1      34       1       1.000000         CONSTANT CONC.      1
      35       1      35       1       1.000000         CONSTANT CONC.      1
      36       1      36       1       1.000000         CONSTANT CONC.      1


                                          ================================================
                                                         TIME STEP NO.  001
                                          ================================================

 FROM TIME =   0.0000     TO    7.0000    


                    "THKSAT          " FLOW TERMS FOR TIME STEP  1, STRESS PERIOD  1 READ UNFORMATTED ON UNIT 10
                    --------------------------------------------------------------------------------------------

                    "QXX             " FLOW TERMS FOR TIME STEP  1, STRESS PERIOD  1 READ UNFORMATTED ON UNIT 10
                    --------------------------------------------------------------------------------------------

                    "QYY             " FLOW TERMS FOR TIME STEP  1, STRESS PERIOD  1 READ UNFORMATTED ON UNIT 10
                    --------------------------------------------------------------------------------------------

 MAXIMUM STEPSIZE DURING WHICH ANY PARTICLE CANNOT MOVE MORE THAN ONE CELL
 = 0.7008    (WHEN MIN. R.F.=1)  AT K=   1, I=  20, J= 103

 MAXIMUM STEPSIZE WHICH MEETS STABILITY CRITERION OF THE ADVECTION TERM
 (FOR PURE FINITE-DIFFERENCE OPTION, MIXELM=0) 
 = 0.6807    (WHEN MIN. R.F.=1)  AT K=   1, I=  20, J= 102

                    "CNH             " FLOW TERMS FOR TIME STEP  1, STRESS PERIOD  1 READ UNFORMATTED ON UNIT 10
                    --------------------------------------------------------------------------------------------


 TOTAL NUMBER OF POINT SOURCES/SINKS PRESENT IN THE FLOW MODEL =   108

 MAXIMUM STEPSIZE WHICH MEETS STABILITY CRITERION OF THE SINK & SOURCE TERM
 =  1.057    (WHEN MIN. R.F.=1)  AT K=   1, I=  16, J=   1

 MAXIMUM STEPSIZE WHICH MEETS STABILITY CRITERION OF THE DISPERSION TERM
 = 0.8712E-01(WHEN MIN. R.F.=1)  AT K=   1, I=  20, J= 103



 >>>>>>>>>>>>>>>>>>>>>>>>>>>>>>>>>>>>>>>>>>>>>>>>>>>>>>>FOR COMPONENT NO. 01<<<<<<<<<<<<<<<<<<<<<<<<<<<<<<<<<<<<<<<<<<<<<<<<<<<<<<<


                                            -------------------------------------------
                                                      TRANSPORT STEP NO.    1
                                            -------------------------------------------

 TOTAL ELAPSED TIME SINCE BEGINNING OF SIMULATION =   0.000000    D   
 .....................................................................

                     CUMULATIVE MASS BUDGETS AT END OF TRANSPORT STEP    1, TIME STEP    1, STRESS PERIOD    1
                     -----------------------------------------------------------------------------------------

                                                             IN                           OUT
                                                      ----------------             ----------------
                               CONSTANT CONCENTRATION:    0.000000                    0.000000    
                                        CONSTANT HEAD:    0.000000                    0.000000    
                               MASS STOR (FLOW MODEL):    0.000000                    0.000000    
                                MASS STORAGE (SOLUTE):    0.000000                    0.000000    
                            ---------------------------------------------------------------------------
                                              [TOTAL]:    0.000000     KG             0.000000     KG  

                                                          NET (IN - OUT):    0.000000    
                                                   DISCREPANCY (PERCENT):    0.000000    
     1 CALLS TO GCG PACKAGE FOR TRANSPORT TIME STEP     2 IN FLOW TIME STEP     1 STRESS PERIOD     1
      3 TOTAL ITERATIONS
     1 CALLS TO GCG PACKAGE FOR TRANSPORT TIME STEP     3 IN FLOW TIME STEP     1 STRESS PERIOD     1
      3 TOTAL ITERATIONS
     1 CALLS TO GCG PACKAGE FOR TRANSPORT TIME STEP     4 IN FLOW TIME STEP     1 STRESS PERIOD     1
      3 TOTAL ITERATIONS
     1 CALLS TO GCG PACKAGE FOR TRANSPORT TIME STEP     5 IN FLOW TIME STEP     1 STRESS PERIOD     1
      3 TOTAL ITERATIONS
     1 CALLS TO GCG PACKAGE FOR TRANSPORT TIME STEP     6 IN FLOW TIME STEP     1 STRESS PERIOD     1
      3 TOTAL ITERATIONS
     1 CALLS TO GCG PACKAGE FOR TRANSPORT TIME STEP     7 IN FLOW TIME STEP     1 STRESS PERIOD     1
      3 TOTAL ITERATIONS
     1 CALLS TO GCG PACKAGE FOR TRANSPORT TIME STEP     8 IN FLOW TIME STEP     1 STRESS PERIOD     1
      3 TOTAL ITERATIONS
     1 CALLS TO GCG PACKAGE FOR TRANSPORT TIME STEP     9 IN FLOW TIME STEP     1 STRESS PERIOD     1
      3 TOTAL ITERATIONS
     1 CALLS TO GCG PACKAGE FOR TRANSPORT TIME STEP    10 IN FLOW TIME STEP     1 STRESS PERIOD     1
      3 TOTAL ITERATIONS
     1 CALLS TO GCG PACKAGE FOR TRANSPORT TIME STEP    11 IN FLOW TIME STEP     1 STRESS PERIOD     1
      3 TOTAL ITERATIONS
     1 CALLS TO GCG PACKAGE FOR TRANSPORT TIME STEP    12 IN FLOW TIME STEP     1 STRESS PERIOD     1
      3 TOTAL ITERATIONS
     1 CALLS TO GCG PACKAGE FOR TRANSPORT TIME STEP    13 IN FLOW TIME STEP     1 STRESS PERIOD     1
      3 TOTAL ITERATIONS
     1 CALLS TO GCG PACKAGE FOR TRANSPORT TIME STEP    14 IN FLOW TIME STEP     1 STRESS PERIOD     1
      3 TOTAL ITERATIONS
     1 CALLS TO GCG PACKAGE FOR TRANSPORT TIME STEP    15 IN FLOW TIME STEP     1 STRESS PERIOD     1
      3 TOTAL ITERATIONS
  MAXIMUM CONCENTRATION CHANGES FOR EACH ITERATION:
  MAX. CHANGE LAYER,ROW,COL MAX. CHANGE LAYER,ROW,COL MAX. CHANGE LAYER,ROW,COL MAX. CHANGE LAYER,ROW,COL MAX. CHANGE LAYER,ROW,COL
 ------------------------------------------------------------------------------------------------------------------------------------
   0.1496E-01 (  1,  9,  2)  0.2718E-04 (  1, 16,  7)  0.5960E-07 (  1,  8,  5)



 >>>>>>>>>>>>>>>>>>>>>>>>>>>>>>>>>>>>>>>>>>>>>>>>>>>>>>>FOR COMPONENT NO. 01<<<<<<<<<<<<<<<<<<<<<<<<<<<<<<<<<<<<<<<<<<<<<<<<<<<<<<<


                                            -------------------------------------------
                                                      TRANSPORT STEP NO.   15
                                            -------------------------------------------

 TOTAL ELAPSED TIME SINCE BEGINNING OF SIMULATION =   7.000000    D   
 .....................................................................

                     CUMULATIVE MASS BUDGETS AT END OF TRANSPORT STEP   15, TIME STEP    1, STRESS PERIOD    1
                     -----------------------------------------------------------------------------------------

                                                             IN                           OUT
                                                      ----------------             ----------------
                               CONSTANT CONCENTRATION:    3.461432                    0.000000    
                                        CONSTANT HEAD:    0.000000                  -0.4603294E-27
                               MASS STOR (FLOW MODEL):    0.000000                    0.000000    
                                MASS STORAGE (SOLUTE):   0.1664940E-10               -3.461425    
                            ---------------------------------------------------------------------------
                                              [TOTAL]:    3.461432     KG            -3.461425     KG  

                                                          NET (IN - OUT):   0.7152557E-05
                                                   DISCREPANCY (PERCENT):   0.2066360E-03


                                   ++++++++++++++++++++++++++++++++++++++++++++++++++++++++++++++
                                                       STRESS PERIOD NO.  002
                                   ++++++++++++++++++++++++++++++++++++++++++++++++++++++++++++++


 LENGTH OF CURRENT STRESS PERIOD =   1095.000    
 NUMBER OF TIME STEPS FOR CURRENT STRESS PERIOD =    1
 TIME STEP MULTIPLIER USED IN FLOW SOLUTION =   1.000000    

 ***Type of Transport Simulation is TRANSIENT

 USER-SPECIFIED TRANSPORT STEPSIZE =   0.000000    D   
 MAXIMUM NUMBER OF TRANSPORT STEPS ALLOWED  IN ONE FLOW TIME STEP =     50000
 MULTIPLIER FOR SUCCESSIVE TRANSPORT STEPS  [USED IN IMPLICIT SCHEMES] =     1.000
 MAXIMUM TRANSPORT STEP SIZE  [USED IN IMPLICIT SCHEMES] =   0.000000    D   

       NO    LAYER   ROW   COLUMN   CONCENTRATION       TYPE            COMPONENT
       1       1       1       1       0.000000         CONSTANT CONC.      1
       2       1       2       1       0.000000         CONSTANT CONC.      1
       3       1       3       1       0.000000         CONSTANT CONC.      1
       4       1       4       1       0.000000         CONSTANT CONC.      1
       5       1       5       1       0.000000         CONSTANT CONC.      1
       6       1       6       1       0.000000         CONSTANT CONC.      1
       7       1       7       1       0.000000         CONSTANT CONC.      1
       8       1       8       1       0.000000         CONSTANT CONC.      1
       9       1       9       1       0.000000         CONSTANT CONC.      1
      10       1      10       1       0.000000         CONSTANT CONC.      1
      11       1      11       1       0.000000         CONSTANT CONC.      1
      12       1      12       1       0.000000         CONSTANT CONC.      1
      13       1      13       1       0.000000         CONSTANT CONC.      1
      14       1      14       1       0.000000         CONSTANT CONC.      1
      15       1      15       1       0.000000         CONSTANT CONC.      1
      16       1      16       1       0.000000         CONSTANT CONC.      1
      17       1      17       1       0.000000         CONSTANT CONC.      1
      18       1      18       1       0.000000         CONSTANT CONC.      1
      19       1      19       1       0.000000         CONSTANT CONC.      1
      20       1      20       1       0.000000         CONSTANT CONC.      1
      21       1      21       1       0.000000         CONSTANT CONC.      1
      22       1      22       1       0.000000         CONSTANT CONC.      1
      23       1      23       1       0.000000         CONSTANT CONC.      1
      24       1      24       1       0.000000         CONSTANT CONC.      1
      25       1      25       1       0.000000         CONSTANT CONC.      1
      26       1      26       1       0.000000         CONSTANT CONC.      1
      27       1      27       1       0.000000         CONSTANT CONC.      1
      28       1      28       1       0.000000         CONSTANT CONC.      1
      29       1      29       1       0.000000         CONSTANT CONC.      1
      30       1      30       1       0.000000         CONSTANT CONC.      1
      31       1      31       1       0.000000         CONSTANT CONC.      1
      32       1      32       1       0.000000         CONSTANT CONC.      1
      33       1      33       1       0.000000         CONSTANT CONC.      1
      34       1      34       1       0.000000         CONSTANT CONC.      1
      35       1      35       1       0.000000         CONSTANT CONC.      1
      36       1      36       1       0.000000         CONSTANT CONC.      1


                                          ================================================
                                                         TIME STEP NO.  001
                                          ================================================

 FROM TIME =   7.0000     TO    1102.0    



     1 CALLS TO GCG PACKAGE FOR TRANSPORT TIME STEP     1 IN FLOW TIME STEP     1 STRESS PERIOD     2
      3 TOTAL ITERATIONS
     1 CALLS TO GCG PACKAGE FOR TRANSPORT TIME STEP     2 IN FLOW TIME STEP     1 STRESS PERIOD     2
      3 TOTAL ITERATIONS
     1 CALLS TO GCG PACKAGE FOR TRANSPORT TIME STEP     3 IN FLOW TIME STEP     1 STRESS PERIOD     2
      3 TOTAL ITERATIONS
     1 CALLS TO GCG PACKAGE FOR TRANSPORT TIME STEP     4 IN FLOW TIME STEP     1 STRESS PERIOD     2
      3 TOTAL ITERATIONS
     1 CALLS TO GCG PACKAGE FOR TRANSPORT TIME STEP     5 IN FLOW TIME STEP     1 STRESS PERIOD     2
      3 TOTAL ITERATIONS
     1 CALLS TO GCG PACKAGE FOR TRANSPORT TIME STEP     6 IN FLOW TIME STEP     1 STRESS PERIOD     2
      3 TOTAL ITERATIONS
     1 CALLS TO GCG PACKAGE FOR TRANSPORT TIME STEP     7 IN FLOW TIME STEP     1 STRESS PERIOD     2
      3 TOTAL ITERATIONS
     1 CALLS TO GCG PACKAGE FOR TRANSPORT TIME STEP     8 IN FLOW TIME STEP     1 STRESS PERIOD     2
      3 TOTAL ITERATIONS



 >>>>>>>>>>>>>>>>>>>>>>>>>>>>>>>>>>>>>>>>>>>>>>>>>>>>>>>FOR COMPONENT NO. 01<<<<<<<<<<<<<<<<<<<<<<<<<<<<<<<<<<<<<<<<<<<<<<<<<<<<<<<


                                            -------------------------------------------
                                                      TRANSPORT STEP NO.    8
                                            -------------------------------------------

 TOTAL ELAPSED TIME SINCE BEGINNING OF SIMULATION =   11.02000    D   
 .....................................................................

                     CUMULATIVE MASS BUDGETS AT END OF TRANSPORT STEP    8, TIME STEP    1, STRESS PERIOD    2
                     -----------------------------------------------------------------------------------------

                                                             IN                           OUT
                                                      ----------------             ----------------
                               CONSTANT CONCENTRATION:    3.461432                  -0.8815386    
                                        CONSTANT HEAD:    0.000000                  -0.4709780E-22
                               MASS STOR (FLOW MODEL):    0.000000                    0.000000    
                                MASS STORAGE (SOLUTE):    1.701502                   -4.281395    
                            ---------------------------------------------------------------------------
                                              [TOTAL]:    5.162933     KG            -5.162933     KG  

                                                          NET (IN - OUT):    0.000000    
                                                   DISCREPANCY (PERCENT):    0.000000    
     1 CALLS TO GCG PACKAGE FOR TRANSPORT TIME STEP     9 IN FLOW TIME STEP     1 STRESS PERIOD     2
      3 TOTAL ITERATIONS
     1 CALLS TO GCG PACKAGE FOR TRANSPORT TIME STEP    10 IN FLOW TIME STEP     1 STRESS PERIOD     2
      3 TOTAL ITERATIONS
     1 CALLS TO GCG PACKAGE FOR TRANSPORT TIME STEP    11 IN FLOW TIME STEP     1 STRESS PERIOD     2
      3 TOTAL ITERATIONS
     1 CALLS TO GCG PACKAGE FOR TRANSPORT TIME STEP    12 IN FLOW TIME STEP     1 STRESS PERIOD     2
      3 TOTAL ITERATIONS
     1 CALLS TO GCG PACKAGE FOR TRANSPORT TIME STEP    13 IN FLOW TIME STEP     1 STRESS PERIOD     2
      3 TOTAL ITERATIONS
     1 CALLS TO GCG PACKAGE FOR TRANSPORT TIME STEP    14 IN FLOW TIME STEP     1 STRESS PERIOD     2
      3 TOTAL ITERATIONS
     1 CALLS TO GCG PACKAGE FOR TRANSPORT TIME STEP    15 IN FLOW TIME STEP     1 STRESS PERIOD     2
      3 TOTAL ITERATIONS
     1 CALLS TO GCG PACKAGE FOR TRANSPORT TIME STEP    16 IN FLOW TIME STEP     1 STRESS PERIOD     2
      3 TOTAL ITERATIONS
     1 CALLS TO GCG PACKAGE FOR TRANSPORT TIME STEP    17 IN FLOW TIME STEP     1 STRESS PERIOD     2
      3 TOTAL ITERATIONS
     1 CALLS TO GCG PACKAGE FOR TRANSPORT TIME STEP    18 IN FLOW TIME STEP     1 STRESS PERIOD     2
      3 TOTAL ITERATIONS
     1 CALLS TO GCG PACKAGE FOR TRANSPORT TIME STEP    19 IN FLOW TIME STEP     1 STRESS PERIOD     2
      3 TOTAL ITERATIONS
     1 CALLS TO GCG PACKAGE FOR TRANSPORT TIME STEP    20 IN FLOW TIME STEP     1 STRESS PERIOD     2
      3 TOTAL ITERATIONS
     1 CALLS TO GCG PACKAGE FOR TRANSPORT TIME STEP    21 IN FLOW TIME STEP     1 STRESS PERIOD     2
      3 TOTAL ITERATIONS
     1 CALLS TO GCG PACKAGE FOR TRANSPORT TIME STEP    22 IN FLOW TIME STEP     1 STRESS PERIOD     2
      3 TOTAL ITERATIONS
     1 CALLS TO GCG PACKAGE FOR TRANSPORT TIME STEP    23 IN FLOW TIME STEP     1 STRESS PERIOD     2
      3 TOTAL ITERATIONS
     1 CALLS TO GCG PACKAGE FOR TRANSPORT TIME STEP    24 IN FLOW TIME STEP     1 STRESS PERIOD     2
      3 TOTAL ITERATIONS
     1 CALLS TO GCG PACKAGE FOR TRANSPORT TIME STEP    25 IN FLOW TIME STEP     1 STRESS PERIOD     2
      3 TOTAL ITERATIONS
     1 CALLS TO GCG PACKAGE FOR TRANSPORT TIME STEP    26 IN FLOW TIME STEP     1 STRESS PERIOD     2
      3 TOTAL ITERATIONS
     1 CALLS TO GCG PACKAGE FOR TRANSPORT TIME STEP    27 IN FLOW TIME STEP     1 STRESS PERIOD     2
      3 TOTAL ITERATIONS
     1 CALLS TO GCG PACKAGE FOR TRANSPORT TIME STEP    28 IN FLOW TIME STEP     1 STRESS PERIOD     2
      3 TOTAL ITERATIONS
     1 CALLS TO GCG PACKAGE FOR TRANSPORT TIME STEP    29 IN FLOW TIME STEP     1 STRESS PERIOD     2
      3 TOTAL ITERATIONS
     1 CALLS TO GCG PACKAGE FOR TRANSPORT TIME STEP    30 IN FLOW TIME STEP     1 STRESS PERIOD     2
      3 TOTAL ITERATIONS



 >>>>>>>>>>>>>>>>>>>>>>>>>>>>>>>>>>>>>>>>>>>>>>>>>>>>>>>FOR COMPONENT NO. 01<<<<<<<<<<<<<<<<<<<<<<<<<<<<<<<<<<<<<<<<<<<<<<<<<<<<<<<


                                            -------------------------------------------
                                                      TRANSPORT STEP NO.   30
                                            -------------------------------------------

 TOTAL ELAPSED TIME SINCE BEGINNING OF SIMULATION =   22.04000    D   
 .....................................................................

                     CUMULATIVE MASS BUDGETS AT END OF TRANSPORT STEP   30, TIME STEP    1, STRESS PERIOD    2
                     -----------------------------------------------------------------------------------------

                                                             IN                           OUT
                                                      ----------------             ----------------
                               CONSTANT CONCENTRATION:    3.461432                   -1.241940    
                                        CONSTANT HEAD:    0.000000                  -0.1435178E-13
                               MASS STOR (FLOW MODEL):    0.000000                    0.000000    
                                MASS STORAGE (SOLUTE):    3.118881                   -5.338374    
                            ---------------------------------------------------------------------------
                                              [TOTAL]:    6.580313     KG            -6.580314     KG  

                                                          NET (IN - OUT):  -0.1430511E-05
                                                   DISCREPANCY (PERCENT):  -0.2173926E-04
     1 CALLS TO GCG PACKAGE FOR TRANSPORT TIME STEP    31 IN FLOW TIME STEP     1 STRESS PERIOD     2
      3 TOTAL ITERATIONS
     1 CALLS TO GCG PACKAGE FOR TRANSPORT TIME STEP    32 IN FLOW TIME STEP     1 STRESS PERIOD     2
      3 TOTAL ITERATIONS
     1 CALLS TO GCG PACKAGE FOR TRANSPORT TIME STEP    33 IN FLOW TIME STEP     1 STRESS PERIOD     2
      3 TOTAL ITERATIONS
     1 CALLS TO GCG PACKAGE FOR TRANSPORT TIME STEP    34 IN FLOW TIME STEP     1 STRESS PERIOD     2
      3 TOTAL ITERATIONS
     1 CALLS TO GCG PACKAGE FOR TRANSPORT TIME STEP    35 IN FLOW TIME STEP     1 STRESS PERIOD     2
      3 TOTAL ITERATIONS
     1 CALLS TO GCG PACKAGE FOR TRANSPORT TIME STEP    36 IN FLOW TIME STEP     1 STRESS PERIOD     2
      3 TOTAL ITERATIONS
     1 CALLS TO GCG PACKAGE FOR TRANSPORT TIME STEP    37 IN FLOW TIME STEP     1 STRESS PERIOD     2
      3 TOTAL ITERATIONS
     1 CALLS TO GCG PACKAGE FOR TRANSPORT TIME STEP    38 IN FLOW TIME STEP     1 STRESS PERIOD     2
      3 TOTAL ITERATIONS
     1 CALLS TO GCG PACKAGE FOR TRANSPORT TIME STEP    39 IN FLOW TIME STEP     1 STRESS PERIOD     2
      3 TOTAL ITERATIONS
     1 CALLS TO GCG PACKAGE FOR TRANSPORT TIME STEP    40 IN FLOW TIME STEP     1 STRESS PERIOD     2
      3 TOTAL ITERATIONS
     1 CALLS TO GCG PACKAGE FOR TRANSPORT TIME STEP    41 IN FLOW TIME STEP     1 STRESS PERIOD     2
      3 TOTAL ITERATIONS
     1 CALLS TO GCG PACKAGE FOR TRANSPORT TIME STEP    42 IN FLOW TIME STEP     1 STRESS PERIOD     2
      3 TOTAL ITERATIONS
     1 CALLS TO GCG PACKAGE FOR TRANSPORT TIME STEP    43 IN FLOW TIME STEP     1 STRESS PERIOD     2
      3 TOTAL ITERATIONS
     1 CALLS TO GCG PACKAGE FOR TRANSPORT TIME STEP    44 IN FLOW TIME STEP     1 STRESS PERIOD     2
      3 TOTAL ITERATIONS
     1 CALLS TO GCG PACKAGE FOR TRANSPORT TIME STEP    45 IN FLOW TIME STEP     1 STRESS PERIOD     2
      3 TOTAL ITERATIONS
     1 CALLS TO GCG PACKAGE FOR TRANSPORT TIME STEP    46 IN FLOW TIME STEP     1 STRESS PERIOD     2
      3 TOTAL ITERATIONS
     1 CALLS TO GCG PACKAGE FOR TRANSPORT TIME STEP    47 IN FLOW TIME STEP     1 STRESS PERIOD     2
      3 TOTAL ITERATIONS
     1 CALLS TO GCG PACKAGE FOR TRANSPORT TIME STEP    48 IN FLOW TIME STEP     1 STRESS PERIOD     2
      3 TOTAL ITERATIONS
     1 CALLS TO GCG PACKAGE FOR TRANSPORT TIME STEP    49 IN FLOW TIME STEP     1 STRESS PERIOD     2
      3 TOTAL ITERATIONS
     1 CALLS TO GCG PACKAGE FOR TRANSPORT TIME STEP    50 IN FLOW TIME STEP     1 STRESS PERIOD     2
      3 TOTAL ITERATIONS
     1 CALLS TO GCG PACKAGE FOR TRANSPORT TIME STEP    51 IN FLOW TIME STEP     1 STRESS PERIOD     2
      3 TOTAL ITERATIONS
     1 CALLS TO GCG PACKAGE FOR TRANSPORT TIME STEP    52 IN FLOW TIME STEP     1 STRESS PERIOD     2
      3 TOTAL ITERATIONS



 >>>>>>>>>>>>>>>>>>>>>>>>>>>>>>>>>>>>>>>>>>>>>>>>>>>>>>>FOR COMPONENT NO. 01<<<<<<<<<<<<<<<<<<<<<<<<<<<<<<<<<<<<<<<<<<<<<<<<<<<<<<<


                                            -------------------------------------------
                                                      TRANSPORT STEP NO.   52
                                            -------------------------------------------

 TOTAL ELAPSED TIME SINCE BEGINNING OF SIMULATION =   33.06000    D   
 .....................................................................

                     CUMULATIVE MASS BUDGETS AT END OF TRANSPORT STEP   52, TIME STEP    1, STRESS PERIOD    2
                     -----------------------------------------------------------------------------------------

                                                             IN                           OUT
                                                      ----------------             ----------------
                               CONSTANT CONCENTRATION:    3.461432                   -1.332192    
                                        CONSTANT HEAD:    0.000000                  -0.6970801E-09
                               MASS STOR (FLOW MODEL):    0.000000                    0.000000    
                                MASS STORAGE (SOLUTE):    3.834419                   -5.963661    
                            ---------------------------------------------------------------------------
                                              [TOTAL]:    7.295851     KG            -7.295853     KG  

                                                          NET (IN - OUT):  -0.1907349E-05
                                                   DISCREPANCY (PERCENT):  -0.2614292E-04
     1 CALLS TO GCG PACKAGE FOR TRANSPORT TIME STEP    53 IN FLOW TIME STEP     1 STRESS PERIOD     2
      3 TOTAL ITERATIONS
     1 CALLS TO GCG PACKAGE FOR TRANSPORT TIME STEP    54 IN FLOW TIME STEP     1 STRESS PERIOD     2
      3 TOTAL ITERATIONS
     1 CALLS TO GCG PACKAGE FOR TRANSPORT TIME STEP    55 IN FLOW TIME STEP     1 STRESS PERIOD     2
      3 TOTAL ITERATIONS
     1 CALLS TO GCG PACKAGE FOR TRANSPORT TIME STEP    56 IN FLOW TIME STEP     1 STRESS PERIOD     2
      3 TOTAL ITERATIONS
     1 CALLS TO GCG PACKAGE FOR TRANSPORT TIME STEP    57 IN FLOW TIME STEP     1 STRESS PERIOD     2
      3 TOTAL ITERATIONS
     1 CALLS TO GCG PACKAGE FOR TRANSPORT TIME STEP    58 IN FLOW TIME STEP     1 STRESS PERIOD     2
      3 TOTAL ITERATIONS
     1 CALLS TO GCG PACKAGE FOR TRANSPORT TIME STEP    59 IN FLOW TIME STEP     1 STRESS PERIOD     2
      3 TOTAL ITERATIONS
     1 CALLS TO GCG PACKAGE FOR TRANSPORT TIME STEP    60 IN FLOW TIME STEP     1 STRESS PERIOD     2
      3 TOTAL ITERATIONS
     1 CALLS TO GCG PACKAGE FOR TRANSPORT TIME STEP    61 IN FLOW TIME STEP     1 STRESS PERIOD     2
      3 TOTAL ITERATIONS
     1 CALLS TO GCG PACKAGE FOR TRANSPORT TIME STEP    62 IN FLOW TIME STEP     1 STRESS PERIOD     2
      3 TOTAL ITERATIONS
     1 CALLS TO GCG PACKAGE FOR TRANSPORT TIME STEP    63 IN FLOW TIME STEP     1 STRESS PERIOD     2
      3 TOTAL ITERATIONS
     1 CALLS TO GCG PACKAGE FOR TRANSPORT TIME STEP    64 IN FLOW TIME STEP     1 STRESS PERIOD     2
      3 TOTAL ITERATIONS
     1 CALLS TO GCG PACKAGE FOR TRANSPORT TIME STEP    65 IN FLOW TIME STEP     1 STRESS PERIOD     2
      3 TOTAL ITERATIONS
     1 CALLS TO GCG PACKAGE FOR TRANSPORT TIME STEP    66 IN FLOW TIME STEP     1 STRESS PERIOD     2
      3 TOTAL ITERATIONS
     1 CALLS TO GCG PACKAGE FOR TRANSPORT TIME STEP    67 IN FLOW TIME STEP     1 STRESS PERIOD     2
      3 TOTAL ITERATIONS
     1 CALLS TO GCG PACKAGE FOR TRANSPORT TIME STEP    68 IN FLOW TIME STEP     1 STRESS PERIOD     2
      3 TOTAL ITERATIONS
     1 CALLS TO GCG PACKAGE FOR TRANSPORT TIME STEP    69 IN FLOW TIME STEP     1 STRESS PERIOD     2
      3 TOTAL ITERATIONS
     1 CALLS TO GCG PACKAGE FOR TRANSPORT TIME STEP    70 IN FLOW TIME STEP     1 STRESS PERIOD     2
      3 TOTAL ITERATIONS
     1 CALLS TO GCG PACKAGE FOR TRANSPORT TIME STEP    71 IN FLOW TIME STEP     1 STRESS PERIOD     2
      3 TOTAL ITERATIONS
     1 CALLS TO GCG PACKAGE FOR TRANSPORT TIME STEP    72 IN FLOW TIME STEP     1 STRESS PERIOD     2
      3 TOTAL ITERATIONS
     1 CALLS TO GCG PACKAGE FOR TRANSPORT TIME STEP    73 IN FLOW TIME STEP     1 STRESS PERIOD     2
      3 TOTAL ITERATIONS
     1 CALLS TO GCG PACKAGE FOR TRANSPORT TIME STEP    74 IN FLOW TIME STEP     1 STRESS PERIOD     2
      3 TOTAL ITERATIONS



 >>>>>>>>>>>>>>>>>>>>>>>>>>>>>>>>>>>>>>>>>>>>>>>>>>>>>>>FOR COMPONENT NO. 01<<<<<<<<<<<<<<<<<<<<<<<<<<<<<<<<<<<<<<<<<<<<<<<<<<<<<<<


                                            -------------------------------------------
                                                      TRANSPORT STEP NO.   74
                                            -------------------------------------------

 TOTAL ELAPSED TIME SINCE BEGINNING OF SIMULATION =   44.08000    D   
 .....................................................................

                     CUMULATIVE MASS BUDGETS AT END OF TRANSPORT STEP   74, TIME STEP    1, STRESS PERIOD    2
                     -----------------------------------------------------------------------------------------

                                                             IN                           OUT
                                                      ----------------             ----------------
                               CONSTANT CONCENTRATION:    3.461432                   -1.369537    
                                        CONSTANT HEAD:    0.000000                  -0.4817209E-06
                               MASS STOR (FLOW MODEL):    0.000000                    0.000000    
                                MASS STORAGE (SOLUTE):    4.343326                   -6.435225    
                            ---------------------------------------------------------------------------
                                              [TOTAL]:    7.804757     KG            -7.804761     KG  

                                                          NET (IN - OUT):  -0.4291534E-05
                                                   DISCREPANCY (PERCENT):  -0.5498612E-04
     1 CALLS TO GCG PACKAGE FOR TRANSPORT TIME STEP    75 IN FLOW TIME STEP     1 STRESS PERIOD     2
      3 TOTAL ITERATIONS
     1 CALLS TO GCG PACKAGE FOR TRANSPORT TIME STEP    76 IN FLOW TIME STEP     1 STRESS PERIOD     2
      3 TOTAL ITERATIONS
     1 CALLS TO GCG PACKAGE FOR TRANSPORT TIME STEP    77 IN FLOW TIME STEP     1 STRESS PERIOD     2
      3 TOTAL ITERATIONS
     1 CALLS TO GCG PACKAGE FOR TRANSPORT TIME STEP    78 IN FLOW TIME STEP     1 STRESS PERIOD     2
      3 TOTAL ITERATIONS
     1 CALLS TO GCG PACKAGE FOR TRANSPORT TIME STEP    79 IN FLOW TIME STEP     1 STRESS PERIOD     2
      3 TOTAL ITERATIONS
     1 CALLS TO GCG PACKAGE FOR TRANSPORT TIME STEP    80 IN FLOW TIME STEP     1 STRESS PERIOD     2
      3 TOTAL ITERATIONS
     1 CALLS TO GCG PACKAGE FOR TRANSPORT TIME STEP    81 IN FLOW TIME STEP     1 STRESS PERIOD     2
      3 TOTAL ITERATIONS
     1 CALLS TO GCG PACKAGE FOR TRANSPORT TIME STEP    82 IN FLOW TIME STEP     1 STRESS PERIOD     2
      3 TOTAL ITERATIONS
     1 CALLS TO GCG PACKAGE FOR TRANSPORT TIME STEP    83 IN FLOW TIME STEP     1 STRESS PERIOD     2
      3 TOTAL ITERATIONS
     1 CALLS TO GCG PACKAGE FOR TRANSPORT TIME STEP    84 IN FLOW TIME STEP     1 STRESS PERIOD     2
      3 TOTAL ITERATIONS
     1 CALLS TO GCG PACKAGE FOR TRANSPORT TIME STEP    85 IN FLOW TIME STEP     1 STRESS PERIOD     2
      3 TOTAL ITERATIONS
     1 CALLS TO GCG PACKAGE FOR TRANSPORT TIME STEP    86 IN FLOW TIME STEP     1 STRESS PERIOD     2
      3 TOTAL ITERATIONS
     1 CALLS TO GCG PACKAGE FOR TRANSPORT TIME STEP    87 IN FLOW TIME STEP     1 STRESS PERIOD     2
      3 TOTAL ITERATIONS
     1 CALLS TO GCG PACKAGE FOR TRANSPORT TIME STEP    88 IN FLOW TIME STEP     1 STRESS PERIOD     2
      3 TOTAL ITERATIONS
     1 CALLS TO GCG PACKAGE FOR TRANSPORT TIME STEP    89 IN FLOW TIME STEP     1 STRESS PERIOD     2
      3 TOTAL ITERATIONS
     1 CALLS TO GCG PACKAGE FOR TRANSPORT TIME STEP    90 IN FLOW TIME STEP     1 STRESS PERIOD     2
      3 TOTAL ITERATIONS
     1 CALLS TO GCG PACKAGE FOR TRANSPORT TIME STEP    91 IN FLOW TIME STEP     1 STRESS PERIOD     2
      3 TOTAL ITERATIONS
     1 CALLS TO GCG PACKAGE FOR TRANSPORT TIME STEP    92 IN FLOW TIME STEP     1 STRESS PERIOD     2
      3 TOTAL ITERATIONS
     1 CALLS TO GCG PACKAGE FOR TRANSPORT TIME STEP    93 IN FLOW TIME STEP     1 STRESS PERIOD     2
      3 TOTAL ITERATIONS
     1 CALLS TO GCG PACKAGE FOR TRANSPORT TIME STEP    94 IN FLOW TIME STEP     1 STRESS PERIOD     2
      3 TOTAL ITERATIONS
     1 CALLS TO GCG PACKAGE FOR TRANSPORT TIME STEP    95 IN FLOW TIME STEP     1 STRESS PERIOD     2
      3 TOTAL ITERATIONS
     1 CALLS TO GCG PACKAGE FOR TRANSPORT TIME STEP    96 IN FLOW TIME STEP     1 STRESS PERIOD     2
      3 TOTAL ITERATIONS



 >>>>>>>>>>>>>>>>>>>>>>>>>>>>>>>>>>>>>>>>>>>>>>>>>>>>>>>FOR COMPONENT NO. 01<<<<<<<<<<<<<<<<<<<<<<<<<<<<<<<<<<<<<<<<<<<<<<<<<<<<<<<


                                            -------------------------------------------
                                                      TRANSPORT STEP NO.   96
                                            -------------------------------------------

 TOTAL ELAPSED TIME SINCE BEGINNING OF SIMULATION =   55.10000    D   
 .....................................................................

                     CUMULATIVE MASS BUDGETS AT END OF TRANSPORT STEP   96, TIME STEP    1, STRESS PERIOD    2
                     -----------------------------------------------------------------------------------------

                                                             IN                           OUT
                                                      ----------------             ----------------
                               CONSTANT CONCENTRATION:    3.461432                   -1.388151    
                                        CONSTANT HEAD:    0.000000                  -0.3186330E-04
                               MASS STOR (FLOW MODEL):    0.000000                    0.000000    
                                MASS STORAGE (SOLUTE):    4.750334                   -6.823588    
                            ---------------------------------------------------------------------------
                                              [TOTAL]:    8.211765     KG            -8.211772     KG  

                                                          NET (IN - OUT):  -0.6675720E-05
                                                   DISCREPANCY (PERCENT):  -0.8129454E-04
     1 CALLS TO GCG PACKAGE FOR TRANSPORT TIME STEP    97 IN FLOW TIME STEP     1 STRESS PERIOD     2
      3 TOTAL ITERATIONS
     1 CALLS TO GCG PACKAGE FOR TRANSPORT TIME STEP    98 IN FLOW TIME STEP     1 STRESS PERIOD     2
      3 TOTAL ITERATIONS
     1 CALLS TO GCG PACKAGE FOR TRANSPORT TIME STEP    99 IN FLOW TIME STEP     1 STRESS PERIOD     2
      3 TOTAL ITERATIONS
     1 CALLS TO GCG PACKAGE FOR TRANSPORT TIME STEP   100 IN FLOW TIME STEP     1 STRESS PERIOD     2
      3 TOTAL ITERATIONS
     1 CALLS TO GCG PACKAGE FOR TRANSPORT TIME STEP   101 IN FLOW TIME STEP     1 STRESS PERIOD     2
      3 TOTAL ITERATIONS
     1 CALLS TO GCG PACKAGE FOR TRANSPORT TIME STEP   102 IN FLOW TIME STEP     1 STRESS PERIOD     2
      3 TOTAL ITERATIONS
     1 CALLS TO GCG PACKAGE FOR TRANSPORT TIME STEP   103 IN FLOW TIME STEP     1 STRESS PERIOD     2
      3 TOTAL ITERATIONS
     1 CALLS TO GCG PACKAGE FOR TRANSPORT TIME STEP   104 IN FLOW TIME STEP     1 STRESS PERIOD     2
      3 TOTAL ITERATIONS
     1 CALLS TO GCG PACKAGE FOR TRANSPORT TIME STEP   105 IN FLOW TIME STEP     1 STRESS PERIOD     2
      3 TOTAL ITERATIONS
     1 CALLS TO GCG PACKAGE FOR TRANSPORT TIME STEP   106 IN FLOW TIME STEP     1 STRESS PERIOD     2
      3 TOTAL ITERATIONS
     1 CALLS TO GCG PACKAGE FOR TRANSPORT TIME STEP   107 IN FLOW TIME STEP     1 STRESS PERIOD     2
      3 TOTAL ITERATIONS
     1 CALLS TO GCG PACKAGE FOR TRANSPORT TIME STEP   108 IN FLOW TIME STEP     1 STRESS PERIOD     2
      3 TOTAL ITERATIONS
     1 CALLS TO GCG PACKAGE FOR TRANSPORT TIME STEP   109 IN FLOW TIME STEP     1 STRESS PERIOD     2
      3 TOTAL ITERATIONS
     1 CALLS TO GCG PACKAGE FOR TRANSPORT TIME STEP   110 IN FLOW TIME STEP     1 STRESS PERIOD     2
      3 TOTAL ITERATIONS
     1 CALLS TO GCG PACKAGE FOR TRANSPORT TIME STEP   111 IN FLOW TIME STEP     1 STRESS PERIOD     2
      3 TOTAL ITERATIONS
     1 CALLS TO GCG PACKAGE FOR TRANSPORT TIME STEP   112 IN FLOW TIME STEP     1 STRESS PERIOD     2
      3 TOTAL ITERATIONS
     1 CALLS TO GCG PACKAGE FOR TRANSPORT TIME STEP   113 IN FLOW TIME STEP     1 STRESS PERIOD     2
      3 TOTAL ITERATIONS
     1 CALLS TO GCG PACKAGE FOR TRANSPORT TIME STEP   114 IN FLOW TIME STEP     1 STRESS PERIOD     2
      3 TOTAL ITERATIONS
     1 CALLS TO GCG PACKAGE FOR TRANSPORT TIME STEP   115 IN FLOW TIME STEP     1 STRESS PERIOD     2
      3 TOTAL ITERATIONS
     1 CALLS TO GCG PACKAGE FOR TRANSPORT TIME STEP   116 IN FLOW TIME STEP     1 STRESS PERIOD     2
      3 TOTAL ITERATIONS
     1 CALLS TO GCG PACKAGE FOR TRANSPORT TIME STEP   117 IN FLOW TIME STEP     1 STRESS PERIOD     2
      3 TOTAL ITERATIONS
     1 CALLS TO GCG PACKAGE FOR TRANSPORT TIME STEP   118 IN FLOW TIME STEP     1 STRESS PERIOD     2
      2 TOTAL ITERATIONS



 >>>>>>>>>>>>>>>>>>>>>>>>>>>>>>>>>>>>>>>>>>>>>>>>>>>>>>>FOR COMPONENT NO. 01<<<<<<<<<<<<<<<<<<<<<<<<<<<<<<<<<<<<<<<<<<<<<<<<<<<<<<<


                                            -------------------------------------------
                                                      TRANSPORT STEP NO.  118
                                            -------------------------------------------

 TOTAL ELAPSED TIME SINCE BEGINNING OF SIMULATION =   66.12000    D   
 .....................................................................

                     CUMULATIVE MASS BUDGETS AT END OF TRANSPORT STEP  118, TIME STEP    1, STRESS PERIOD    2
                     -----------------------------------------------------------------------------------------

                                                             IN                           OUT
                                                      ----------------             ----------------
                               CONSTANT CONCENTRATION:    3.461432                   -1.398440    
                                        CONSTANT HEAD:    0.000000                  -0.5229500E-03
                               MASS STOR (FLOW MODEL):    0.000000                    0.000000    
                                MASS STORAGE (SOLUTE):    5.095629                   -7.158105    
                            ---------------------------------------------------------------------------
                                              [TOTAL]:    8.557061     KG            -8.557068     KG  

                                                          NET (IN - OUT):  -0.6675720E-05
                                                   DISCREPANCY (PERCENT):  -0.7801414E-04
     1 CALLS TO GCG PACKAGE FOR TRANSPORT TIME STEP   119 IN FLOW TIME STEP     1 STRESS PERIOD     2
      3 TOTAL ITERATIONS
     1 CALLS TO GCG PACKAGE FOR TRANSPORT TIME STEP   120 IN FLOW TIME STEP     1 STRESS PERIOD     2
      3 TOTAL ITERATIONS
     1 CALLS TO GCG PACKAGE FOR TRANSPORT TIME STEP   121 IN FLOW TIME STEP     1 STRESS PERIOD     2
      3 TOTAL ITERATIONS
     1 CALLS TO GCG PACKAGE FOR TRANSPORT TIME STEP   122 IN FLOW TIME STEP     1 STRESS PERIOD     2
      3 TOTAL ITERATIONS
     1 CALLS TO GCG PACKAGE FOR TRANSPORT TIME STEP   123 IN FLOW TIME STEP     1 STRESS PERIOD     2
      3 TOTAL ITERATIONS
     1 CALLS TO GCG PACKAGE FOR TRANSPORT TIME STEP   124 IN FLOW TIME STEP     1 STRESS PERIOD     2
      3 TOTAL ITERATIONS
     1 CALLS TO GCG PACKAGE FOR TRANSPORT TIME STEP   125 IN FLOW TIME STEP     1 STRESS PERIOD     2
      3 TOTAL ITERATIONS
     1 CALLS TO GCG PACKAGE FOR TRANSPORT TIME STEP   126 IN FLOW TIME STEP     1 STRESS PERIOD     2
      3 TOTAL ITERATIONS
     1 CALLS TO GCG PACKAGE FOR TRANSPORT TIME STEP   127 IN FLOW TIME STEP     1 STRESS PERIOD     2
      3 TOTAL ITERATIONS
     1 CALLS TO GCG PACKAGE FOR TRANSPORT TIME STEP   128 IN FLOW TIME STEP     1 STRESS PERIOD     2
      3 TOTAL ITERATIONS
     1 CALLS TO GCG PACKAGE FOR TRANSPORT TIME STEP   129 IN FLOW TIME STEP     1 STRESS PERIOD     2
      3 TOTAL ITERATIONS
     1 CALLS TO GCG PACKAGE FOR TRANSPORT TIME STEP   130 IN FLOW TIME STEP     1 STRESS PERIOD     2
      3 TOTAL ITERATIONS
     1 CALLS TO GCG PACKAGE FOR TRANSPORT TIME STEP   131 IN FLOW TIME STEP     1 STRESS PERIOD     2
      3 TOTAL ITERATIONS
     1 CALLS TO GCG PACKAGE FOR TRANSPORT TIME STEP   132 IN FLOW TIME STEP     1 STRESS PERIOD     2
      3 TOTAL ITERATIONS
     1 CALLS TO GCG PACKAGE FOR TRANSPORT TIME STEP   133 IN FLOW TIME STEP     1 STRESS PERIOD     2
      3 TOTAL ITERATIONS
     1 CALLS TO GCG PACKAGE FOR TRANSPORT TIME STEP   134 IN FLOW TIME STEP     1 STRESS PERIOD     2
      3 TOTAL ITERATIONS
     1 CALLS TO GCG PACKAGE FOR TRANSPORT TIME STEP   135 IN FLOW TIME STEP     1 STRESS PERIOD     2
      3 TOTAL ITERATIONS
     1 CALLS TO GCG PACKAGE FOR TRANSPORT TIME STEP   136 IN FLOW TIME STEP     1 STRESS PERIOD     2
      3 TOTAL ITERATIONS
     1 CALLS TO GCG PACKAGE FOR TRANSPORT TIME STEP   137 IN FLOW TIME STEP     1 STRESS PERIOD     2
      3 TOTAL ITERATIONS
     1 CALLS TO GCG PACKAGE FOR TRANSPORT TIME STEP   138 IN FLOW TIME STEP     1 STRESS PERIOD     2
      3 TOTAL ITERATIONS
     1 CALLS TO GCG PACKAGE FOR TRANSPORT TIME STEP   139 IN FLOW TIME STEP     1 STRESS PERIOD     2
      3 TOTAL ITERATIONS
     1 CALLS TO GCG PACKAGE FOR TRANSPORT TIME STEP   140 IN FLOW TIME STEP     1 STRESS PERIOD     2
      3 TOTAL ITERATIONS



 >>>>>>>>>>>>>>>>>>>>>>>>>>>>>>>>>>>>>>>>>>>>>>>>>>>>>>>FOR COMPONENT NO. 01<<<<<<<<<<<<<<<<<<<<<<<<<<<<<<<<<<<<<<<<<<<<<<<<<<<<<<<


                                            -------------------------------------------
                                                      TRANSPORT STEP NO.  140
                                            -------------------------------------------

 TOTAL ELAPSED TIME SINCE BEGINNING OF SIMULATION =   77.14000    D   
 .....................................................................

                     CUMULATIVE MASS BUDGETS AT END OF TRANSPORT STEP  140, TIME STEP    1, STRESS PERIOD    2
                     -----------------------------------------------------------------------------------------

                                                             IN                           OUT
                                                      ----------------             ----------------
                               CONSTANT CONCENTRATION:    3.461432                   -1.404525    
                                        CONSTANT HEAD:    0.000000                  -0.3594828E-02
                               MASS STOR (FLOW MODEL):    0.000000                    0.000000    
                                MASS STORAGE (SOLUTE):    5.399293                   -7.452613    
                            ---------------------------------------------------------------------------
                                              [TOTAL]:    8.860724     KG            -8.860733     KG  

                                                          NET (IN - OUT):  -0.8583069E-05
                                                   DISCREPANCY (PERCENT):  -0.9686640E-04
     1 CALLS TO GCG PACKAGE FOR TRANSPORT TIME STEP   141 IN FLOW TIME STEP     1 STRESS PERIOD     2
      3 TOTAL ITERATIONS
     1 CALLS TO GCG PACKAGE FOR TRANSPORT TIME STEP   142 IN FLOW TIME STEP     1 STRESS PERIOD     2
      3 TOTAL ITERATIONS
     1 CALLS TO GCG PACKAGE FOR TRANSPORT TIME STEP   143 IN FLOW TIME STEP     1 STRESS PERIOD     2
      3 TOTAL ITERATIONS
     1 CALLS TO GCG PACKAGE FOR TRANSPORT TIME STEP   144 IN FLOW TIME STEP     1 STRESS PERIOD     2
      3 TOTAL ITERATIONS
     1 CALLS TO GCG PACKAGE FOR TRANSPORT TIME STEP   145 IN FLOW TIME STEP     1 STRESS PERIOD     2
      3 TOTAL ITERATIONS
     1 CALLS TO GCG PACKAGE FOR TRANSPORT TIME STEP   146 IN FLOW TIME STEP     1 STRESS PERIOD     2
      3 TOTAL ITERATIONS
     1 CALLS TO GCG PACKAGE FOR TRANSPORT TIME STEP   147 IN FLOW TIME STEP     1 STRESS PERIOD     2
      3 TOTAL ITERATIONS
     1 CALLS TO GCG PACKAGE FOR TRANSPORT TIME STEP   148 IN FLOW TIME STEP     1 STRESS PERIOD     2
      3 TOTAL ITERATIONS
     1 CALLS TO GCG PACKAGE FOR TRANSPORT TIME STEP   149 IN FLOW TIME STEP     1 STRESS PERIOD     2
      3 TOTAL ITERATIONS
     1 CALLS TO GCG PACKAGE FOR TRANSPORT TIME STEP   150 IN FLOW TIME STEP     1 STRESS PERIOD     2
      3 TOTAL ITERATIONS
     1 CALLS TO GCG PACKAGE FOR TRANSPORT TIME STEP   151 IN FLOW TIME STEP     1 STRESS PERIOD     2
      3 TOTAL ITERATIONS
     1 CALLS TO GCG PACKAGE FOR TRANSPORT TIME STEP   152 IN FLOW TIME STEP     1 STRESS PERIOD     2
      3 TOTAL ITERATIONS
     1 CALLS TO GCG PACKAGE FOR TRANSPORT TIME STEP   153 IN FLOW TIME STEP     1 STRESS PERIOD     2
      3 TOTAL ITERATIONS
     1 CALLS TO GCG PACKAGE FOR TRANSPORT TIME STEP   154 IN FLOW TIME STEP     1 STRESS PERIOD     2
      3 TOTAL ITERATIONS
     1 CALLS TO GCG PACKAGE FOR TRANSPORT TIME STEP   155 IN FLOW TIME STEP     1 STRESS PERIOD     2
      3 TOTAL ITERATIONS
     1 CALLS TO GCG PACKAGE FOR TRANSPORT TIME STEP   156 IN FLOW TIME STEP     1 STRESS PERIOD     2
      3 TOTAL ITERATIONS
     1 CALLS TO GCG PACKAGE FOR TRANSPORT TIME STEP   157 IN FLOW TIME STEP     1 STRESS PERIOD     2
      3 TOTAL ITERATIONS
     1 CALLS TO GCG PACKAGE FOR TRANSPORT TIME STEP   158 IN FLOW TIME STEP     1 STRESS PERIOD     2
      3 TOTAL ITERATIONS
     1 CALLS TO GCG PACKAGE FOR TRANSPORT TIME STEP   159 IN FLOW TIME STEP     1 STRESS PERIOD     2
      3 TOTAL ITERATIONS
     1 CALLS TO GCG PACKAGE FOR TRANSPORT TIME STEP   160 IN FLOW TIME STEP     1 STRESS PERIOD     2
      3 TOTAL ITERATIONS
     1 CALLS TO GCG PACKAGE FOR TRANSPORT TIME STEP   161 IN FLOW TIME STEP     1 STRESS PERIOD     2
      3 TOTAL ITERATIONS
     1 CALLS TO GCG PACKAGE FOR TRANSPORT TIME STEP   162 IN FLOW TIME STEP     1 STRESS PERIOD     2
      3 TOTAL ITERATIONS



 >>>>>>>>>>>>>>>>>>>>>>>>>>>>>>>>>>>>>>>>>>>>>>>>>>>>>>>FOR COMPONENT NO. 01<<<<<<<<<<<<<<<<<<<<<<<<<<<<<<<<<<<<<<<<<<<<<<<<<<<<<<<


                                            -------------------------------------------
                                                      TRANSPORT STEP NO.  162
                                            -------------------------------------------

 TOTAL ELAPSED TIME SINCE BEGINNING OF SIMULATION =   88.16000    D   
 .....................................................................

                     CUMULATIVE MASS BUDGETS AT END OF TRANSPORT STEP  162, TIME STEP    1, STRESS PERIOD    2
                     -----------------------------------------------------------------------------------------

                                                             IN                           OUT
                                                      ----------------             ----------------
                               CONSTANT CONCENTRATION:    3.461432                   -1.408301    
                                        CONSTANT HEAD:    0.000000                  -0.1406672E-01
                               MASS STOR (FLOW MODEL):    0.000000                    0.000000    
                                MASS STORAGE (SOLUTE):    5.672729                   -7.711804    
                            ---------------------------------------------------------------------------
                                              [TOTAL]:    9.134161     KG            -9.134171     KG  

                                                          NET (IN - OUT):  -0.1049042E-04
                                                   DISCREPANCY (PERCENT):  -0.1148481E-03
     1 CALLS TO GCG PACKAGE FOR TRANSPORT TIME STEP   163 IN FLOW TIME STEP     1 STRESS PERIOD     2
      3 TOTAL ITERATIONS
     1 CALLS TO GCG PACKAGE FOR TRANSPORT TIME STEP   164 IN FLOW TIME STEP     1 STRESS PERIOD     2
      3 TOTAL ITERATIONS
     1 CALLS TO GCG PACKAGE FOR TRANSPORT TIME STEP   165 IN FLOW TIME STEP     1 STRESS PERIOD     2
      3 TOTAL ITERATIONS
     1 CALLS TO GCG PACKAGE FOR TRANSPORT TIME STEP   166 IN FLOW TIME STEP     1 STRESS PERIOD     2
      3 TOTAL ITERATIONS
     1 CALLS TO GCG PACKAGE FOR TRANSPORT TIME STEP   167 IN FLOW TIME STEP     1 STRESS PERIOD     2
      3 TOTAL ITERATIONS
     1 CALLS TO GCG PACKAGE FOR TRANSPORT TIME STEP   168 IN FLOW TIME STEP     1 STRESS PERIOD     2
      3 TOTAL ITERATIONS
     1 CALLS TO GCG PACKAGE FOR TRANSPORT TIME STEP   169 IN FLOW TIME STEP     1 STRESS PERIOD     2
      3 TOTAL ITERATIONS
     1 CALLS TO GCG PACKAGE FOR TRANSPORT TIME STEP   170 IN FLOW TIME STEP     1 STRESS PERIOD     2
      3 TOTAL ITERATIONS
     1 CALLS TO GCG PACKAGE FOR TRANSPORT TIME STEP   171 IN FLOW TIME STEP     1 STRESS PERIOD     2
      3 TOTAL ITERATIONS
     1 CALLS TO GCG PACKAGE FOR TRANSPORT TIME STEP   172 IN FLOW TIME STEP     1 STRESS PERIOD     2
      3 TOTAL ITERATIONS
     1 CALLS TO GCG PACKAGE FOR TRANSPORT TIME STEP   173 IN FLOW TIME STEP     1 STRESS PERIOD     2
      3 TOTAL ITERATIONS
     1 CALLS TO GCG PACKAGE FOR TRANSPORT TIME STEP   174 IN FLOW TIME STEP     1 STRESS PERIOD     2
      3 TOTAL ITERATIONS
     1 CALLS TO GCG PACKAGE FOR TRANSPORT TIME STEP   175 IN FLOW TIME STEP     1 STRESS PERIOD     2
      3 TOTAL ITERATIONS
     1 CALLS TO GCG PACKAGE FOR TRANSPORT TIME STEP   176 IN FLOW TIME STEP     1 STRESS PERIOD     2
      3 TOTAL ITERATIONS
     1 CALLS TO GCG PACKAGE FOR TRANSPORT TIME STEP   177 IN FLOW TIME STEP     1 STRESS PERIOD     2
      3 TOTAL ITERATIONS
     1 CALLS TO GCG PACKAGE FOR TRANSPORT TIME STEP   178 IN FLOW TIME STEP     1 STRESS PERIOD     2
      3 TOTAL ITERATIONS
     1 CALLS TO GCG PACKAGE FOR TRANSPORT TIME STEP   179 IN FLOW TIME STEP     1 STRESS PERIOD     2
      3 TOTAL ITERATIONS
     1 CALLS TO GCG PACKAGE FOR TRANSPORT TIME STEP   180 IN FLOW TIME STEP     1 STRESS PERIOD     2
      3 TOTAL ITERATIONS
     1 CALLS TO GCG PACKAGE FOR TRANSPORT TIME STEP   181 IN FLOW TIME STEP     1 STRESS PERIOD     2
      3 TOTAL ITERATIONS
     1 CALLS TO GCG PACKAGE FOR TRANSPORT TIME STEP   182 IN FLOW TIME STEP     1 STRESS PERIOD     2
      3 TOTAL ITERATIONS
     1 CALLS TO GCG PACKAGE FOR TRANSPORT TIME STEP   183 IN FLOW TIME STEP     1 STRESS PERIOD     2
      3 TOTAL ITERATIONS
     1 CALLS TO GCG PACKAGE FOR TRANSPORT TIME STEP   184 IN FLOW TIME STEP     1 STRESS PERIOD     2
      3 TOTAL ITERATIONS



 >>>>>>>>>>>>>>>>>>>>>>>>>>>>>>>>>>>>>>>>>>>>>>>>>>>>>>>FOR COMPONENT NO. 01<<<<<<<<<<<<<<<<<<<<<<<<<<<<<<<<<<<<<<<<<<<<<<<<<<<<<<<


                                            -------------------------------------------
                                                      TRANSPORT STEP NO.  184
                                            -------------------------------------------

 TOTAL ELAPSED TIME SINCE BEGINNING OF SIMULATION =   99.18000    D   
 .....................................................................

                     CUMULATIVE MASS BUDGETS AT END OF TRANSPORT STEP  184, TIME STEP    1, STRESS PERIOD    2
                     -----------------------------------------------------------------------------------------

                                                             IN                           OUT
                                                      ----------------             ----------------
                               CONSTANT CONCENTRATION:    3.461432                   -1.410732    
                                        CONSTANT HEAD:    0.000000                  -0.3778743E-01
                               MASS STOR (FLOW MODEL):    0.000000                    0.000000    
                                MASS STORAGE (SOLUTE):    5.922758                   -7.935682    
                            ---------------------------------------------------------------------------
                                              [TOTAL]:    9.384190     KG            -9.384202     KG  

                                                          NET (IN - OUT):  -0.1239777E-04
                                                   DISCREPANCY (PERCENT):  -0.1321133E-03
     1 CALLS TO GCG PACKAGE FOR TRANSPORT TIME STEP   185 IN FLOW TIME STEP     1 STRESS PERIOD     2
      3 TOTAL ITERATIONS
     1 CALLS TO GCG PACKAGE FOR TRANSPORT TIME STEP   186 IN FLOW TIME STEP     1 STRESS PERIOD     2
      3 TOTAL ITERATIONS
     1 CALLS TO GCG PACKAGE FOR TRANSPORT TIME STEP   187 IN FLOW TIME STEP     1 STRESS PERIOD     2
      3 TOTAL ITERATIONS
     1 CALLS TO GCG PACKAGE FOR TRANSPORT TIME STEP   188 IN FLOW TIME STEP     1 STRESS PERIOD     2
      3 TOTAL ITERATIONS
     1 CALLS TO GCG PACKAGE FOR TRANSPORT TIME STEP   189 IN FLOW TIME STEP     1 STRESS PERIOD     2
      3 TOTAL ITERATIONS
     1 CALLS TO GCG PACKAGE FOR TRANSPORT TIME STEP   190 IN FLOW TIME STEP     1 STRESS PERIOD     2
      3 TOTAL ITERATIONS
     1 CALLS TO GCG PACKAGE FOR TRANSPORT TIME STEP   191 IN FLOW TIME STEP     1 STRESS PERIOD     2
      3 TOTAL ITERATIONS
     1 CALLS TO GCG PACKAGE FOR TRANSPORT TIME STEP   192 IN FLOW TIME STEP     1 STRESS PERIOD     2
      3 TOTAL ITERATIONS
     1 CALLS TO GCG PACKAGE FOR TRANSPORT TIME STEP   193 IN FLOW TIME STEP     1 STRESS PERIOD     2
      3 TOTAL ITERATIONS
     1 CALLS TO GCG PACKAGE FOR TRANSPORT TIME STEP   194 IN FLOW TIME STEP     1 STRESS PERIOD     2
      3 TOTAL ITERATIONS
     1 CALLS TO GCG PACKAGE FOR TRANSPORT TIME STEP   195 IN FLOW TIME STEP     1 STRESS PERIOD     2
      3 TOTAL ITERATIONS
     1 CALLS TO GCG PACKAGE FOR TRANSPORT TIME STEP   196 IN FLOW TIME STEP     1 STRESS PERIOD     2
      3 TOTAL ITERATIONS
     1 CALLS TO GCG PACKAGE FOR TRANSPORT TIME STEP   197 IN FLOW TIME STEP     1 STRESS PERIOD     2
      3 TOTAL ITERATIONS
     1 CALLS TO GCG PACKAGE FOR TRANSPORT TIME STEP   198 IN FLOW TIME STEP     1 STRESS PERIOD     2
      3 TOTAL ITERATIONS
     1 CALLS TO GCG PACKAGE FOR TRANSPORT TIME STEP   199 IN FLOW TIME STEP     1 STRESS PERIOD     2
      3 TOTAL ITERATIONS
     1 CALLS TO GCG PACKAGE FOR TRANSPORT TIME STEP   200 IN FLOW TIME STEP     1 STRESS PERIOD     2
      3 TOTAL ITERATIONS
     1 CALLS TO GCG PACKAGE FOR TRANSPORT TIME STEP   201 IN FLOW TIME STEP     1 STRESS PERIOD     2
      3 TOTAL ITERATIONS
     1 CALLS TO GCG PACKAGE FOR TRANSPORT TIME STEP   202 IN FLOW TIME STEP     1 STRESS PERIOD     2
      3 TOTAL ITERATIONS
     1 CALLS TO GCG PACKAGE FOR TRANSPORT TIME STEP   203 IN FLOW TIME STEP     1 STRESS PERIOD     2
      3 TOTAL ITERATIONS
     1 CALLS TO GCG PACKAGE FOR TRANSPORT TIME STEP   204 IN FLOW TIME STEP     1 STRESS PERIOD     2
      3 TOTAL ITERATIONS
     1 CALLS TO GCG PACKAGE FOR TRANSPORT TIME STEP   205 IN FLOW TIME STEP     1 STRESS PERIOD     2
      3 TOTAL ITERATIONS
     1 CALLS TO GCG PACKAGE FOR TRANSPORT TIME STEP   206 IN FLOW TIME STEP     1 STRESS PERIOD     2
      3 TOTAL ITERATIONS



 >>>>>>>>>>>>>>>>>>>>>>>>>>>>>>>>>>>>>>>>>>>>>>>>>>>>>>>FOR COMPONENT NO. 01<<<<<<<<<<<<<<<<<<<<<<<<<<<<<<<<<<<<<<<<<<<<<<<<<<<<<<<


                                            -------------------------------------------
                                                      TRANSPORT STEP NO.  206
                                            -------------------------------------------

 TOTAL ELAPSED TIME SINCE BEGINNING OF SIMULATION =   110.2000    D   
 .....................................................................

                     CUMULATIVE MASS BUDGETS AT END OF TRANSPORT STEP  206, TIME STEP    1, STRESS PERIOD    2
                     -----------------------------------------------------------------------------------------

                                                             IN                           OUT
                                                      ----------------             ----------------
                               CONSTANT CONCENTRATION:    3.461432                   -1.412344    
                                        CONSTANT HEAD:    0.000000                  -0.7842215E-01
                               MASS STOR (FLOW MODEL):    0.000000                    0.000000    
                                MASS STORAGE (SOLUTE):    6.153833                   -8.124514    
                            ---------------------------------------------------------------------------
                                              [TOTAL]:    9.615265     KG            -9.615279     KG  

                                                          NET (IN - OUT):  -0.1430511E-04
                                                   DISCREPANCY (PERCENT):  -0.1487749E-03
     1 CALLS TO GCG PACKAGE FOR TRANSPORT TIME STEP   207 IN FLOW TIME STEP     1 STRESS PERIOD     2
      3 TOTAL ITERATIONS
     1 CALLS TO GCG PACKAGE FOR TRANSPORT TIME STEP   208 IN FLOW TIME STEP     1 STRESS PERIOD     2
      3 TOTAL ITERATIONS
     1 CALLS TO GCG PACKAGE FOR TRANSPORT TIME STEP   209 IN FLOW TIME STEP     1 STRESS PERIOD     2
      3 TOTAL ITERATIONS
     1 CALLS TO GCG PACKAGE FOR TRANSPORT TIME STEP   210 IN FLOW TIME STEP     1 STRESS PERIOD     2
      3 TOTAL ITERATIONS
     1 CALLS TO GCG PACKAGE FOR TRANSPORT TIME STEP   211 IN FLOW TIME STEP     1 STRESS PERIOD     2
      3 TOTAL ITERATIONS
     1 CALLS TO GCG PACKAGE FOR TRANSPORT TIME STEP   212 IN FLOW TIME STEP     1 STRESS PERIOD     2
      3 TOTAL ITERATIONS
     1 CALLS TO GCG PACKAGE FOR TRANSPORT TIME STEP   213 IN FLOW TIME STEP     1 STRESS PERIOD     2
      3 TOTAL ITERATIONS
     1 CALLS TO GCG PACKAGE FOR TRANSPORT TIME STEP   214 IN FLOW TIME STEP     1 STRESS PERIOD     2
      3 TOTAL ITERATIONS
     1 CALLS TO GCG PACKAGE FOR TRANSPORT TIME STEP   215 IN FLOW TIME STEP     1 STRESS PERIOD     2
      3 TOTAL ITERATIONS
     1 CALLS TO GCG PACKAGE FOR TRANSPORT TIME STEP   216 IN FLOW TIME STEP     1 STRESS PERIOD     2
      3 TOTAL ITERATIONS
     1 CALLS TO GCG PACKAGE FOR TRANSPORT TIME STEP   217 IN FLOW TIME STEP     1 STRESS PERIOD     2
      3 TOTAL ITERATIONS
     1 CALLS TO GCG PACKAGE FOR TRANSPORT TIME STEP   218 IN FLOW TIME STEP     1 STRESS PERIOD     2
      3 TOTAL ITERATIONS
     1 CALLS TO GCG PACKAGE FOR TRANSPORT TIME STEP   219 IN FLOW TIME STEP     1 STRESS PERIOD     2
      3 TOTAL ITERATIONS
     1 CALLS TO GCG PACKAGE FOR TRANSPORT TIME STEP   220 IN FLOW TIME STEP     1 STRESS PERIOD     2
      3 TOTAL ITERATIONS
     1 CALLS TO GCG PACKAGE FOR TRANSPORT TIME STEP   221 IN FLOW TIME STEP     1 STRESS PERIOD     2
      3 TOTAL ITERATIONS
     1 CALLS TO GCG PACKAGE FOR TRANSPORT TIME STEP   222 IN FLOW TIME STEP     1 STRESS PERIOD     2
      3 TOTAL ITERATIONS
     1 CALLS TO GCG PACKAGE FOR TRANSPORT TIME STEP   223 IN FLOW TIME STEP     1 STRESS PERIOD     2
      3 TOTAL ITERATIONS
     1 CALLS TO GCG PACKAGE FOR TRANSPORT TIME STEP   224 IN FLOW TIME STEP     1 STRESS PERIOD     2
      3 TOTAL ITERATIONS
     1 CALLS TO GCG PACKAGE FOR TRANSPORT TIME STEP   225 IN FLOW TIME STEP     1 STRESS PERIOD     2
      3 TOTAL ITERATIONS
     1 CALLS TO GCG PACKAGE FOR TRANSPORT TIME STEP   226 IN FLOW TIME STEP     1 STRESS PERIOD     2
      3 TOTAL ITERATIONS
     1 CALLS TO GCG PACKAGE FOR TRANSPORT TIME STEP   227 IN FLOW TIME STEP     1 STRESS PERIOD     2
      3 TOTAL ITERATIONS
     1 CALLS TO GCG PACKAGE FOR TRANSPORT TIME STEP   228 IN FLOW TIME STEP     1 STRESS PERIOD     2
      3 TOTAL ITERATIONS



 >>>>>>>>>>>>>>>>>>>>>>>>>>>>>>>>>>>>>>>>>>>>>>>>>>>>>>>FOR COMPONENT NO. 01<<<<<<<<<<<<<<<<<<<<<<<<<<<<<<<<<<<<<<<<<<<<<<<<<<<<<<<


                                            -------------------------------------------
                                                      TRANSPORT STEP NO.  228
                                            -------------------------------------------

 TOTAL ELAPSED TIME SINCE BEGINNING OF SIMULATION =   121.2200    D   
 .....................................................................

                     CUMULATIVE MASS BUDGETS AT END OF TRANSPORT STEP  228, TIME STEP    1, STRESS PERIOD    2
                     -----------------------------------------------------------------------------------------

                                                             IN                           OUT
                                                      ----------------             ----------------
                               CONSTANT CONCENTRATION:    3.461432                   -1.413437    
                                        CONSTANT HEAD:    0.000000                  -0.1358071    
                               MASS STOR (FLOW MODEL):    0.000000                    0.000000    
                                MASS STORAGE (SOLUTE):    6.369288                   -8.281490    
                            ---------------------------------------------------------------------------
                                              [TOTAL]:    9.830720     KG            -9.830734     KG  

                                                          NET (IN - OUT):  -0.1430511E-04
                                                   DISCREPANCY (PERCENT):  -0.1455143E-03
     1 CALLS TO GCG PACKAGE FOR TRANSPORT TIME STEP   229 IN FLOW TIME STEP     1 STRESS PERIOD     2
      3 TOTAL ITERATIONS
     1 CALLS TO GCG PACKAGE FOR TRANSPORT TIME STEP   230 IN FLOW TIME STEP     1 STRESS PERIOD     2
      3 TOTAL ITERATIONS
     1 CALLS TO GCG PACKAGE FOR TRANSPORT TIME STEP   231 IN FLOW TIME STEP     1 STRESS PERIOD     2
      3 TOTAL ITERATIONS
     1 CALLS TO GCG PACKAGE FOR TRANSPORT TIME STEP   232 IN FLOW TIME STEP     1 STRESS PERIOD     2
      3 TOTAL ITERATIONS
     1 CALLS TO GCG PACKAGE FOR TRANSPORT TIME STEP   233 IN FLOW TIME STEP     1 STRESS PERIOD     2
      3 TOTAL ITERATIONS
     1 CALLS TO GCG PACKAGE FOR TRANSPORT TIME STEP   234 IN FLOW TIME STEP     1 STRESS PERIOD     2
      3 TOTAL ITERATIONS
     1 CALLS TO GCG PACKAGE FOR TRANSPORT TIME STEP   235 IN FLOW TIME STEP     1 STRESS PERIOD     2
      3 TOTAL ITERATIONS
     1 CALLS TO GCG PACKAGE FOR TRANSPORT TIME STEP   236 IN FLOW TIME STEP     1 STRESS PERIOD     2
      3 TOTAL ITERATIONS
     1 CALLS TO GCG PACKAGE FOR TRANSPORT TIME STEP   237 IN FLOW TIME STEP     1 STRESS PERIOD     2
      3 TOTAL ITERATIONS
     1 CALLS TO GCG PACKAGE FOR TRANSPORT TIME STEP   238 IN FLOW TIME STEP     1 STRESS PERIOD     2
      3 TOTAL ITERATIONS
     1 CALLS TO GCG PACKAGE FOR TRANSPORT TIME STEP   239 IN FLOW TIME STEP     1 STRESS PERIOD     2
      3 TOTAL ITERATIONS
     1 CALLS TO GCG PACKAGE FOR TRANSPORT TIME STEP   240 IN FLOW TIME STEP     1 STRESS PERIOD     2
      3 TOTAL ITERATIONS
     1 CALLS TO GCG PACKAGE FOR TRANSPORT TIME STEP   241 IN FLOW TIME STEP     1 STRESS PERIOD     2
      3 TOTAL ITERATIONS
     1 CALLS TO GCG PACKAGE FOR TRANSPORT TIME STEP   242 IN FLOW TIME STEP     1 STRESS PERIOD     2
      3 TOTAL ITERATIONS
     1 CALLS TO GCG PACKAGE FOR TRANSPORT TIME STEP   243 IN FLOW TIME STEP     1 STRESS PERIOD     2
      3 TOTAL ITERATIONS
     1 CALLS TO GCG PACKAGE FOR TRANSPORT TIME STEP   244 IN FLOW TIME STEP     1 STRESS PERIOD     2
      3 TOTAL ITERATIONS
     1 CALLS TO GCG PACKAGE FOR TRANSPORT TIME STEP   245 IN FLOW TIME STEP     1 STRESS PERIOD     2
      3 TOTAL ITERATIONS
     1 CALLS TO GCG PACKAGE FOR TRANSPORT TIME STEP   246 IN FLOW TIME STEP     1 STRESS PERIOD     2
      3 TOTAL ITERATIONS
     1 CALLS TO GCG PACKAGE FOR TRANSPORT TIME STEP   247 IN FLOW TIME STEP     1 STRESS PERIOD     2
      3 TOTAL ITERATIONS
     1 CALLS TO GCG PACKAGE FOR TRANSPORT TIME STEP   248 IN FLOW TIME STEP     1 STRESS PERIOD     2
      3 TOTAL ITERATIONS
     1 CALLS TO GCG PACKAGE FOR TRANSPORT TIME STEP   249 IN FLOW TIME STEP     1 STRESS PERIOD     2
      3 TOTAL ITERATIONS
     1 CALLS TO GCG PACKAGE FOR TRANSPORT TIME STEP   250 IN FLOW TIME STEP     1 STRESS PERIOD     2
      3 TOTAL ITERATIONS



 >>>>>>>>>>>>>>>>>>>>>>>>>>>>>>>>>>>>>>>>>>>>>>>>>>>>>>>FOR COMPONENT NO. 01<<<<<<<<<<<<<<<<<<<<<<<<<<<<<<<<<<<<<<<<<<<<<<<<<<<<<<<


                                            -------------------------------------------
                                                      TRANSPORT STEP NO.  250
                                            -------------------------------------------

 TOTAL ELAPSED TIME SINCE BEGINNING OF SIMULATION =   132.2400    D   
 .....................................................................

                     CUMULATIVE MASS BUDGETS AT END OF TRANSPORT STEP  250, TIME STEP    1, STRESS PERIOD    2
                     -----------------------------------------------------------------------------------------

                                                             IN                           OUT
                                                      ----------------             ----------------
                               CONSTANT CONCENTRATION:    3.461432                   -1.414193    
                                        CONSTANT HEAD:    0.000000                  -0.2066799    
                               MASS STOR (FLOW MODEL):    0.000000                    0.000000    
                                MASS STORAGE (SOLUTE):    6.571403                   -8.411978    
                            ---------------------------------------------------------------------------
                                              [TOTAL]:    10.03283     KG            -10.03285     KG  

                                                          NET (IN - OUT):  -0.1716614E-04
                                                   DISCREPANCY (PERCENT):  -0.1710994E-03
     1 CALLS TO GCG PACKAGE FOR TRANSPORT TIME STEP   251 IN FLOW TIME STEP     1 STRESS PERIOD     2
      3 TOTAL ITERATIONS
     1 CALLS TO GCG PACKAGE FOR TRANSPORT TIME STEP   252 IN FLOW TIME STEP     1 STRESS PERIOD     2
      3 TOTAL ITERATIONS
     1 CALLS TO GCG PACKAGE FOR TRANSPORT TIME STEP   253 IN FLOW TIME STEP     1 STRESS PERIOD     2
      3 TOTAL ITERATIONS
     1 CALLS TO GCG PACKAGE FOR TRANSPORT TIME STEP   254 IN FLOW TIME STEP     1 STRESS PERIOD     2
      3 TOTAL ITERATIONS
     1 CALLS TO GCG PACKAGE FOR TRANSPORT TIME STEP   255 IN FLOW TIME STEP     1 STRESS PERIOD     2
      3 TOTAL ITERATIONS
     1 CALLS TO GCG PACKAGE FOR TRANSPORT TIME STEP   256 IN FLOW TIME STEP     1 STRESS PERIOD     2
      3 TOTAL ITERATIONS
     1 CALLS TO GCG PACKAGE FOR TRANSPORT TIME STEP   257 IN FLOW TIME STEP     1 STRESS PERIOD     2
      3 TOTAL ITERATIONS
     1 CALLS TO GCG PACKAGE FOR TRANSPORT TIME STEP   258 IN FLOW TIME STEP     1 STRESS PERIOD     2
      3 TOTAL ITERATIONS
     1 CALLS TO GCG PACKAGE FOR TRANSPORT TIME STEP   259 IN FLOW TIME STEP     1 STRESS PERIOD     2
      3 TOTAL ITERATIONS
     1 CALLS TO GCG PACKAGE FOR TRANSPORT TIME STEP   260 IN FLOW TIME STEP     1 STRESS PERIOD     2
      3 TOTAL ITERATIONS
     1 CALLS TO GCG PACKAGE FOR TRANSPORT TIME STEP   261 IN FLOW TIME STEP     1 STRESS PERIOD     2
      3 TOTAL ITERATIONS
     1 CALLS TO GCG PACKAGE FOR TRANSPORT TIME STEP   262 IN FLOW TIME STEP     1 STRESS PERIOD     2
      3 TOTAL ITERATIONS
     1 CALLS TO GCG PACKAGE FOR TRANSPORT TIME STEP   263 IN FLOW TIME STEP     1 STRESS PERIOD     2
      3 TOTAL ITERATIONS
     1 CALLS TO GCG PACKAGE FOR TRANSPORT TIME STEP   264 IN FLOW TIME STEP     1 STRESS PERIOD     2
      3 TOTAL ITERATIONS
     1 CALLS TO GCG PACKAGE FOR TRANSPORT TIME STEP   265 IN FLOW TIME STEP     1 STRESS PERIOD     2
      3 TOTAL ITERATIONS
     1 CALLS TO GCG PACKAGE FOR TRANSPORT TIME STEP   266 IN FLOW TIME STEP     1 STRESS PERIOD     2
      3 TOTAL ITERATIONS
     1 CALLS TO GCG PACKAGE FOR TRANSPORT TIME STEP   267 IN FLOW TIME STEP     1 STRESS PERIOD     2
      3 TOTAL ITERATIONS
     1 CALLS TO GCG PACKAGE FOR TRANSPORT TIME STEP   268 IN FLOW TIME STEP     1 STRESS PERIOD     2
      3 TOTAL ITERATIONS
     1 CALLS TO GCG PACKAGE FOR TRANSPORT TIME STEP   269 IN FLOW TIME STEP     1 STRESS PERIOD     2
      3 TOTAL ITERATIONS
     1 CALLS TO GCG PACKAGE FOR TRANSPORT TIME STEP   270 IN FLOW TIME STEP     1 STRESS PERIOD     2
      3 TOTAL ITERATIONS
     1 CALLS TO GCG PACKAGE FOR TRANSPORT TIME STEP   271 IN FLOW TIME STEP     1 STRESS PERIOD     2
      3 TOTAL ITERATIONS
     1 CALLS TO GCG PACKAGE FOR TRANSPORT TIME STEP   272 IN FLOW TIME STEP     1 STRESS PERIOD     2
      3 TOTAL ITERATIONS



 >>>>>>>>>>>>>>>>>>>>>>>>>>>>>>>>>>>>>>>>>>>>>>>>>>>>>>>FOR COMPONENT NO. 01<<<<<<<<<<<<<<<<<<<<<<<<<<<<<<<<<<<<<<<<<<<<<<<<<<<<<<<


                                            -------------------------------------------
                                                      TRANSPORT STEP NO.  272
                                            -------------------------------------------

 TOTAL ELAPSED TIME SINCE BEGINNING OF SIMULATION =   143.2600    D   
 .....................................................................

                     CUMULATIVE MASS BUDGETS AT END OF TRANSPORT STEP  272, TIME STEP    1, STRESS PERIOD    2
                     -----------------------------------------------------------------------------------------

                                                             IN                           OUT
                                                      ----------------             ----------------
                               CONSTANT CONCENTRATION:    3.461432                   -1.414725    
                                        CONSTANT HEAD:    0.000000                  -0.2864215    
                               MASS STOR (FLOW MODEL):    0.000000                    0.000000    
                                MASS STORAGE (SOLUTE):    6.761826                   -8.522130    
                            ---------------------------------------------------------------------------
                                              [TOTAL]:    10.22326     KG            -10.22328     KG  

                                                          NET (IN - OUT):  -0.1907349E-04
[...]

 TOTAL ELAPSED TIME SINCE BEGINNING OF SIMULATION =   1057.900    D   
 .....................................................................

                     CUMULATIVE MASS BUDGETS AT END OF TRANSPORT STEP 2098, TIME STEP    1, STRESS PERIOD    2
                     -----------------------------------------------------------------------------------------

                                                             IN                           OUT
                                                      ----------------             ----------------
                               CONSTANT CONCENTRATION:    3.461432                   -1.416179    
                                        CONSTANT HEAD:    0.000000                   -2.045262    
                               MASS STOR (FLOW MODEL):    0.000000                    0.000000    
                                MASS STORAGE (SOLUTE):    9.117476                   -9.117520    
                            ---------------------------------------------------------------------------
                                              [TOTAL]:    12.57891     KG            -12.57896     KG  

                                                          NET (IN - OUT):  -0.5340576E-04
                                                   DISCREPANCY (PERCENT):  -0.4245650E-03
     1 CALLS TO GCG PACKAGE FOR TRANSPORT TIME STEP  2099 IN FLOW TIME STEP     1 STRESS PERIOD     2
      3 TOTAL ITERATIONS
     1 CALLS TO GCG PACKAGE FOR TRANSPORT TIME STEP  2100 IN FLOW TIME STEP     1 STRESS PERIOD     2
      3 TOTAL ITERATIONS
     1 CALLS TO GCG PACKAGE FOR TRANSPORT TIME STEP  2101 IN FLOW TIME STEP     1 STRESS PERIOD     2
      3 TOTAL ITERATIONS
     1 CALLS TO GCG PACKAGE FOR TRANSPORT TIME STEP  2102 IN FLOW TIME STEP     1 STRESS PERIOD     2
      3 TOTAL ITERATIONS
     1 CALLS TO GCG PACKAGE FOR TRANSPORT TIME STEP  2103 IN FLOW TIME STEP     1 STRESS PERIOD     2
      3 TOTAL ITERATIONS
     1 CALLS TO GCG PACKAGE FOR TRANSPORT TIME STEP  2104 IN FLOW TIME STEP     1 STRESS PERIOD     2
      3 TOTAL ITERATIONS
     1 CALLS TO GCG PACKAGE FOR TRANSPORT TIME STEP  2105 IN FLOW TIME STEP     1 STRESS PERIOD     2
      3 TOTAL ITERATIONS
     1 CALLS TO GCG PACKAGE FOR TRANSPORT TIME STEP  2106 IN FLOW TIME STEP     1 STRESS PERIOD     2
      3 TOTAL ITERATIONS
     1 CALLS TO GCG PACKAGE FOR TRANSPORT TIME STEP  2107 IN FLOW TIME STEP     1 STRESS PERIOD     2
      3 TOTAL ITERATIONS
     1 CALLS TO GCG PACKAGE FOR TRANSPORT TIME STEP  2108 IN FLOW TIME STEP     1 STRESS PERIOD     2
      3 TOTAL ITERATIONS
     1 CALLS TO GCG PACKAGE FOR TRANSPORT TIME STEP  2109 IN FLOW TIME STEP     1 STRESS PERIOD     2
      3 TOTAL ITERATIONS
     1 CALLS TO GCG PACKAGE FOR TRANSPORT TIME STEP  2110 IN FLOW TIME STEP     1 STRESS PERIOD     2
      3 TOTAL ITERATIONS
     1 CALLS TO GCG PACKAGE FOR TRANSPORT TIME STEP  2111 IN FLOW TIME STEP     1 STRESS PERIOD     2
      3 TOTAL ITERATIONS
     1 CALLS TO GCG PACKAGE FOR TRANSPORT TIME STEP  2112 IN FLOW TIME STEP     1 STRESS PERIOD     2
      3 TOTAL ITERATIONS
     1 CALLS TO GCG PACKAGE FOR TRANSPORT TIME STEP  2113 IN FLOW TIME STEP     1 STRESS PERIOD     2
      3 TOTAL ITERATIONS
     1 CALLS TO GCG PACKAGE FOR TRANSPORT TIME STEP  2114 IN FLOW TIME STEP     1 STRESS PERIOD     2
      3 TOTAL ITERATIONS
     1 CALLS TO GCG PACKAGE FOR TRANSPORT TIME STEP  2115 IN FLOW TIME STEP     1 STRESS PERIOD     2
      3 TOTAL ITERATIONS
     1 CALLS TO GCG PACKAGE FOR TRANSPORT TIME STEP  2116 IN FLOW TIME STEP     1 STRESS PERIOD     2
      3 TOTAL ITERATIONS
     1 CALLS TO GCG PACKAGE FOR TRANSPORT TIME STEP  2117 IN FLOW TIME STEP     1 STRESS PERIOD     2
      3 TOTAL ITERATIONS
     1 CALLS TO GCG PACKAGE FOR TRANSPORT TIME STEP  2118 IN FLOW TIME STEP     1 STRESS PERIOD     2
      3 TOTAL ITERATIONS
     1 CALLS TO GCG PACKAGE FOR TRANSPORT TIME STEP  2119 IN FLOW TIME STEP     1 STRESS PERIOD     2
      3 TOTAL ITERATIONS
     1 CALLS TO GCG PACKAGE FOR TRANSPORT TIME STEP  2120 IN FLOW TIME STEP     1 STRESS PERIOD     2
      3 TOTAL ITERATIONS



 >>>>>>>>>>>>>>>>>>>>>>>>>>>>>>>>>>>>>>>>>>>>>>>>>>>>>>>FOR COMPONENT NO. 01<<<<<<<<<<<<<<<<<<<<<<<<<<<<<<<<<<<<<<<<<<<<<<<<<<<<<<<


                                            -------------------------------------------
                                                      TRANSPORT STEP NO. 2120
                                            -------------------------------------------

 TOTAL ELAPSED TIME SINCE BEGINNING OF SIMULATION =   1068.900    D   
 .....................................................................

                     CUMULATIVE MASS BUDGETS AT END OF TRANSPORT STEP 2120, TIME STEP    1, STRESS PERIOD    2
                     -----------------------------------------------------------------------------------------

                                                             IN                           OUT
                                                      ----------------             ----------------
                               CONSTANT CONCENTRATION:    3.461432                   -1.416179    
                                        CONSTANT HEAD:    0.000000                   -2.045267    
                               MASS STOR (FLOW MODEL):    0.000000                    0.000000    
                                MASS STORAGE (SOLUTE):    9.117476                   -9.117520    
                            ---------------------------------------------------------------------------
                                              [TOTAL]:    12.57891     KG            -12.57897     KG  

                                                          NET (IN - OUT):  -0.5817413E-04
                                                   DISCREPANCY (PERCENT):  -0.4624726E-03
     1 CALLS TO GCG PACKAGE FOR TRANSPORT TIME STEP  2121 IN FLOW TIME STEP     1 STRESS PERIOD     2
      3 TOTAL ITERATIONS
     1 CALLS TO GCG PACKAGE FOR TRANSPORT TIME STEP  2122 IN FLOW TIME STEP     1 STRESS PERIOD     2
      3 TOTAL ITERATIONS
     1 CALLS TO GCG PACKAGE FOR TRANSPORT TIME STEP  2123 IN FLOW TIME STEP     1 STRESS PERIOD     2
      3 TOTAL ITERATIONS
     1 CALLS TO GCG PACKAGE FOR TRANSPORT TIME STEP  2124 IN FLOW TIME STEP     1 STRESS PERIOD     2
      3 TOTAL ITERATIONS
     1 CALLS TO GCG PACKAGE FOR TRANSPORT TIME STEP  2125 IN FLOW TIME STEP     1 STRESS PERIOD     2
      3 TOTAL ITERATIONS
     1 CALLS TO GCG PACKAGE FOR TRANSPORT TIME STEP  2126 IN FLOW TIME STEP     1 STRESS PERIOD     2
      3 TOTAL ITERATIONS
     1 CALLS TO GCG PACKAGE FOR TRANSPORT TIME STEP  2127 IN FLOW TIME STEP     1 STRESS PERIOD     2
      3 TOTAL ITERATIONS
     1 CALLS TO GCG PACKAGE FOR TRANSPORT TIME STEP  2128 IN FLOW TIME STEP     1 STRESS PERIOD     2
      3 TOTAL ITERATIONS
     1 CALLS TO GCG PACKAGE FOR TRANSPORT TIME STEP  2129 IN FLOW TIME STEP     1 STRESS PERIOD     2
      3 TOTAL ITERATIONS
     1 CALLS TO GCG PACKAGE FOR TRANSPORT TIME STEP  2130 IN FLOW TIME STEP     1 STRESS PERIOD     2
      3 TOTAL ITERATIONS
     1 CALLS TO GCG PACKAGE FOR TRANSPORT TIME STEP  2131 IN FLOW TIME STEP     1 STRESS PERIOD     2
      3 TOTAL ITERATIONS
     1 CALLS TO GCG PACKAGE FOR TRANSPORT TIME STEP  2132 IN FLOW TIME STEP     1 STRESS PERIOD     2
      3 TOTAL ITERATIONS
     1 CALLS TO GCG PACKAGE FOR TRANSPORT TIME STEP  2133 IN FLOW TIME STEP     1 STRESS PERIOD     2
      3 TOTAL ITERATIONS
     1 CALLS TO GCG PACKAGE FOR TRANSPORT TIME STEP  2134 IN FLOW TIME STEP     1 STRESS PERIOD     2
      3 TOTAL ITERATIONS
     1 CALLS TO GCG PACKAGE FOR TRANSPORT TIME STEP  2135 IN FLOW TIME STEP     1 STRESS PERIOD     2
      3 TOTAL ITERATIONS
     1 CALLS TO GCG PACKAGE FOR TRANSPORT TIME STEP  2136 IN FLOW TIME STEP     1 STRESS PERIOD     2
      3 TOTAL ITERATIONS
     1 CALLS TO GCG PACKAGE FOR TRANSPORT TIME STEP  2137 IN FLOW TIME STEP     1 STRESS PERIOD     2
      3 TOTAL ITERATIONS
     1 CALLS TO GCG PACKAGE FOR TRANSPORT TIME STEP  2138 IN FLOW TIME STEP     1 STRESS PERIOD     2
      3 TOTAL ITERATIONS
     1 CALLS TO GCG PACKAGE FOR TRANSPORT TIME STEP  2139 IN FLOW TIME STEP     1 STRESS PERIOD     2
      3 TOTAL ITERATIONS
     1 CALLS TO GCG PACKAGE FOR TRANSPORT TIME STEP  2140 IN FLOW TIME STEP     1 STRESS PERIOD     2
      3 TOTAL ITERATIONS
     1 CALLS TO GCG PACKAGE FOR TRANSPORT TIME STEP  2141 IN FLOW TIME STEP     1 STRESS PERIOD     2
      3 TOTAL ITERATIONS
     1 CALLS TO GCG PACKAGE FOR TRANSPORT TIME STEP  2142 IN FLOW TIME STEP     1 STRESS PERIOD     2
      3 TOTAL ITERATIONS



 >>>>>>>>>>>>>>>>>>>>>>>>>>>>>>>>>>>>>>>>>>>>>>>>>>>>>>>FOR COMPONENT NO. 01<<<<<<<<<<<<<<<<<<<<<<<<<<<<<<<<<<<<<<<<<<<<<<<<<<<<<<<


                                            -------------------------------------------
                                                      TRANSPORT STEP NO. 2142
                                            -------------------------------------------

 TOTAL ELAPSED TIME SINCE BEGINNING OF SIMULATION =   1080.000    D   
 .....................................................................

                     CUMULATIVE MASS BUDGETS AT END OF TRANSPORT STEP 2142, TIME STEP    1, STRESS PERIOD    2
                     -----------------------------------------------------------------------------------------

                                                             IN                           OUT
                                                      ----------------             ----------------
                               CONSTANT CONCENTRATION:    3.461432                   -1.416179    
                                        CONSTANT HEAD:    0.000000                   -2.045272    
                               MASS STOR (FLOW MODEL):    0.000000                    0.000000    
                                MASS STORAGE (SOLUTE):    9.117476                   -9.117520    
                            ---------------------------------------------------------------------------
                                              [TOTAL]:    12.57891     KG            -12.57897     KG  

                                                          NET (IN - OUT):  -0.6389618E-04
                                                   DISCREPANCY (PERCENT):  -0.5079616E-03
     1 CALLS TO GCG PACKAGE FOR TRANSPORT TIME STEP  2143 IN FLOW TIME STEP     1 STRESS PERIOD     2
      3 TOTAL ITERATIONS
     1 CALLS TO GCG PACKAGE FOR TRANSPORT TIME STEP  2144 IN FLOW TIME STEP     1 STRESS PERIOD     2
      3 TOTAL ITERATIONS
     1 CALLS TO GCG PACKAGE FOR TRANSPORT TIME STEP  2145 IN FLOW TIME STEP     1 STRESS PERIOD     2
      3 TOTAL ITERATIONS
     1 CALLS TO GCG PACKAGE FOR TRANSPORT TIME STEP  2146 IN FLOW TIME STEP     1 STRESS PERIOD     2
      3 TOTAL ITERATIONS
     1 CALLS TO GCG PACKAGE FOR TRANSPORT TIME STEP  2147 IN FLOW TIME STEP     1 STRESS PERIOD     2
      3 TOTAL ITERATIONS
     1 CALLS TO GCG PACKAGE FOR TRANSPORT TIME STEP  2148 IN FLOW TIME STEP     1 STRESS PERIOD     2
      3 TOTAL ITERATIONS
     1 CALLS TO GCG PACKAGE FOR TRANSPORT TIME STEP  2149 IN FLOW TIME STEP     1 STRESS PERIOD     2
      3 TOTAL ITERATIONS
     1 CALLS TO GCG PACKAGE FOR TRANSPORT TIME STEP  2150 IN FLOW TIME STEP     1 STRESS PERIOD     2
      3 TOTAL ITERATIONS
     1 CALLS TO GCG PACKAGE FOR TRANSPORT TIME STEP  2151 IN FLOW TIME STEP     1 STRESS PERIOD     2
      3 TOTAL ITERATIONS
     1 CALLS TO GCG PACKAGE FOR TRANSPORT TIME STEP  2152 IN FLOW TIME STEP     1 STRESS PERIOD     2
      3 TOTAL ITERATIONS
     1 CALLS TO GCG PACKAGE FOR TRANSPORT TIME STEP  2153 IN FLOW TIME STEP     1 STRESS PERIOD     2
      3 TOTAL ITERATIONS
     1 CALLS TO GCG PACKAGE FOR TRANSPORT TIME STEP  2154 IN FLOW TIME STEP     1 STRESS PERIOD     2
      3 TOTAL ITERATIONS
     1 CALLS TO GCG PACKAGE FOR TRANSPORT TIME STEP  2155 IN FLOW TIME STEP     1 STRESS PERIOD     2
      3 TOTAL ITERATIONS
     1 CALLS TO GCG PACKAGE FOR TRANSPORT TIME STEP  2156 IN FLOW TIME STEP     1 STRESS PERIOD     2
      3 TOTAL ITERATIONS
     1 CALLS TO GCG PACKAGE FOR TRANSPORT TIME STEP  2157 IN FLOW TIME STEP     1 STRESS PERIOD     2
      3 TOTAL ITERATIONS
     1 CALLS TO GCG PACKAGE FOR TRANSPORT TIME STEP  2158 IN FLOW TIME STEP     1 STRESS PERIOD     2
      3 TOTAL ITERATIONS
     1 CALLS TO GCG PACKAGE FOR TRANSPORT TIME STEP  2159 IN FLOW TIME STEP     1 STRESS PERIOD     2
      3 TOTAL ITERATIONS
     1 CALLS TO GCG PACKAGE FOR TRANSPORT TIME STEP  2160 IN FLOW TIME STEP     1 STRESS PERIOD     2
      3 TOTAL ITERATIONS
     1 CALLS TO GCG PACKAGE FOR TRANSPORT TIME STEP  2161 IN FLOW TIME STEP     1 STRESS PERIOD     2
      3 TOTAL ITERATIONS
     1 CALLS TO GCG PACKAGE FOR TRANSPORT TIME STEP  2162 IN FLOW TIME STEP     1 STRESS PERIOD     2
      3 TOTAL ITERATIONS
     1 CALLS TO GCG PACKAGE FOR TRANSPORT TIME STEP  2163 IN FLOW TIME STEP     1 STRESS PERIOD     2
      3 TOTAL ITERATIONS
     1 CALLS TO GCG PACKAGE FOR TRANSPORT TIME STEP  2164 IN FLOW TIME STEP     1 STRESS PERIOD     2
      3 TOTAL ITERATIONS



 >>>>>>>>>>>>>>>>>>>>>>>>>>>>>>>>>>>>>>>>>>>>>>>>>>>>>>>FOR COMPONENT NO. 01<<<<<<<<<<<<<<<<<<<<<<<<<<<<<<<<<<<<<<<<<<<<<<<<<<<<<<<


                                            -------------------------------------------
                                                      TRANSPORT STEP NO. 2164
                                            -------------------------------------------

 TOTAL ELAPSED TIME SINCE BEGINNING OF SIMULATION =   1091.000    D   
 .....................................................................

                     CUMULATIVE MASS BUDGETS AT END OF TRANSPORT STEP 2164, TIME STEP    1, STRESS PERIOD    2
                     -----------------------------------------------------------------------------------------

                                                             IN                           OUT
                                                      ----------------             ----------------
                               CONSTANT CONCENTRATION:    3.461432                   -1.416179    
                                        CONSTANT HEAD:    0.000000                   -2.045277    
                               MASS STOR (FLOW MODEL):    0.000000                    0.000000    
                                MASS STORAGE (SOLUTE):    9.117476                   -9.117520    
                            ---------------------------------------------------------------------------
                                              [TOTAL]:    12.57891     KG            -12.57898     KG  

                                                          NET (IN - OUT):  -0.6961823E-04
                                                   DISCREPANCY (PERCENT):  -0.5534505E-03
     1 CALLS TO GCG PACKAGE FOR TRANSPORT TIME STEP  2165 IN FLOW TIME STEP     1 STRESS PERIOD     2
      3 TOTAL ITERATIONS
     1 CALLS TO GCG PACKAGE FOR TRANSPORT TIME STEP  2166 IN FLOW TIME STEP     1 STRESS PERIOD     2
      3 TOTAL ITERATIONS
     1 CALLS TO GCG PACKAGE FOR TRANSPORT TIME STEP  2167 IN FLOW TIME STEP     1 STRESS PERIOD     2
      3 TOTAL ITERATIONS
     1 CALLS TO GCG PACKAGE FOR TRANSPORT TIME STEP  2168 IN FLOW TIME STEP     1 STRESS PERIOD     2
      3 TOTAL ITERATIONS
     1 CALLS TO GCG PACKAGE FOR TRANSPORT TIME STEP  2169 IN FLOW TIME STEP     1 STRESS PERIOD     2
      3 TOTAL ITERATIONS
     1 CALLS TO GCG PACKAGE FOR TRANSPORT TIME STEP  2170 IN FLOW TIME STEP     1 STRESS PERIOD     2
      3 TOTAL ITERATIONS
     1 CALLS TO GCG PACKAGE FOR TRANSPORT TIME STEP  2171 IN FLOW TIME STEP     1 STRESS PERIOD     2
      3 TOTAL ITERATIONS
     1 CALLS TO GCG PACKAGE FOR TRANSPORT TIME STEP  2172 IN FLOW TIME STEP     1 STRESS PERIOD     2
      3 TOTAL ITERATIONS
     1 CALLS TO GCG PACKAGE FOR TRANSPORT TIME STEP  2173 IN FLOW TIME STEP     1 STRESS PERIOD     2
      3 TOTAL ITERATIONS
     1 CALLS TO GCG PACKAGE FOR TRANSPORT TIME STEP  2174 IN FLOW TIME STEP     1 STRESS PERIOD     2
      3 TOTAL ITERATIONS
     1 CALLS TO GCG PACKAGE FOR TRANSPORT TIME STEP  2175 IN FLOW TIME STEP     1 STRESS PERIOD     2
      3 TOTAL ITERATIONS
     1 CALLS TO GCG PACKAGE FOR TRANSPORT TIME STEP  2176 IN FLOW TIME STEP     1 STRESS PERIOD     2
      3 TOTAL ITERATIONS
     1 CALLS TO GCG PACKAGE FOR TRANSPORT TIME STEP  2177 IN FLOW TIME STEP     1 STRESS PERIOD     2
      3 TOTAL ITERATIONS
     1 CALLS TO GCG PACKAGE FOR TRANSPORT TIME STEP  2178 IN FLOW TIME STEP     1 STRESS PERIOD     2
      3 TOTAL ITERATIONS
     1 CALLS TO GCG PACKAGE FOR TRANSPORT TIME STEP  2179 IN FLOW TIME STEP     1 STRESS PERIOD     2
      3 TOTAL ITERATIONS
     1 CALLS TO GCG PACKAGE FOR TRANSPORT TIME STEP  2180 IN FLOW TIME STEP     1 STRESS PERIOD     2
      3 TOTAL ITERATIONS
     1 CALLS TO GCG PACKAGE FOR TRANSPORT TIME STEP  2181 IN FLOW TIME STEP     1 STRESS PERIOD     2
      3 TOTAL ITERATIONS
     1 CALLS TO GCG PACKAGE FOR TRANSPORT TIME STEP  2182 IN FLOW TIME STEP     1 STRESS PERIOD     2
      3 TOTAL ITERATIONS
     1 CALLS TO GCG PACKAGE FOR TRANSPORT TIME STEP  2183 IN FLOW TIME STEP     1 STRESS PERIOD     2
      3 TOTAL ITERATIONS
     1 CALLS TO GCG PACKAGE FOR TRANSPORT TIME STEP  2184 IN FLOW TIME STEP     1 STRESS PERIOD     2
      3 TOTAL ITERATIONS
     1 CALLS TO GCG PACKAGE FOR TRANSPORT TIME STEP  2185 IN FLOW TIME STEP     1 STRESS PERIOD     2
      3 TOTAL ITERATIONS
     1 CALLS TO GCG PACKAGE FOR TRANSPORT TIME STEP  2186 IN FLOW TIME STEP     1 STRESS PERIOD     2
      3 TOTAL ITERATIONS
  MAXIMUM CONCENTRATION CHANGES FOR EACH ITERATION:
  MAX. CHANGE LAYER,ROW,COL MAX. CHANGE LAYER,ROW,COL MAX. CHANGE LAYER,ROW,COL MAX. CHANGE LAYER,ROW,COL MAX. CHANGE LAYER,ROW,COL
 ------------------------------------------------------------------------------------------------------------------------------------
   0.7731E-01 (  1,  1,120)  0.2798E-04 (  1,  3,119)  0.3725E-08 (  1, 34,118)



 >>>>>>>>>>>>>>>>>>>>>>>>>>>>>>>>>>>>>>>>>>>>>>>>>>>>>>>FOR COMPONENT NO. 01<<<<<<<<<<<<<<<<<<<<<<<<<<<<<<<<<<<<<<<<<<<<<<<<<<<<<<<


                                            -------------------------------------------
                                                      TRANSPORT STEP NO. 2186
                                            -------------------------------------------

 TOTAL ELAPSED TIME SINCE BEGINNING OF SIMULATION =   1102.000    D   
 .....................................................................

                     CUMULATIVE MASS BUDGETS AT END OF TRANSPORT STEP 2186, TIME STEP    1, STRESS PERIOD    2
                     -----------------------------------------------------------------------------------------

                                                             IN                           OUT
                                                      ----------------             ----------------
                               CONSTANT CONCENTRATION:    3.461432                   -1.416179    
                                        CONSTANT HEAD:    0.000000                   -2.045282    
                               MASS STOR (FLOW MODEL):    0.000000                    0.000000    
                                MASS STORAGE (SOLUTE):    9.117476                   -9.117520    
                            ---------------------------------------------------------------------------
                                              [TOTAL]:    12.57891     KG            -12.57898     KG  

                                                          NET (IN - OUT):  -0.7343292E-04
                                                   DISCREPANCY (PERCENT):  -0.5837764E-03
  ----- 
 | M T |
 | 3 D | END OF MODEL OUTPUT
  ----- 
