                                   MODFLOW 6
                U.S. GEOLOGICAL SURVEY MODULAR HYDROLOGIC MODEL
                          GROUNDWATER FLOW MODEL (GWF)
                            VERSION 6.6.0 12/20/2024

   MODFLOW 6 compiled Dec 31 2024 17:10:16 with Intel(R) Fortran Intel(R) 64
   Compiler Classic for applications running on Intel(R) 64, Version 2021.7.0
                             Build 20220726_000000

This software has been approved for release by the U.S. Geological 
Survey (USGS). Although the software has been subjected to rigorous 
review, the USGS reserves the right to update the software as needed 
pursuant to further analysis and review. No warranty, expressed or 
implied, is made by the USGS or the U.S. Government as to the 
functionality of the software and related material nor shall the 
fact of release constitute any such warranty. Furthermore, the 
software is released on condition that neither the USGS nor the U.S. 
Government shall be held liable for any damages resulting from its 
authorized or unauthorized use. Also refer to the USGS Water 
Resources Software User Rights Notice for complete use, copyright, 
and distribution information.


As a work of the United States Government, this USGS product is 
in the public domain within the United States. You can copy, 
modify, distribute, and perform the work, even for commercial 
purposes, all without asking permission. Additionally, USGS 
waives copyright and related rights in the work worldwide 
through CC0 1.0 Universal Public Domain Dedication 
(https://creativecommons.org/publicdomain/zero/1.0/).

The following GNU Lesser General Public License (LGPL) libraries
are used in this USGS product:

    SPARSKIT version 2.0
      ilut, luson, and qsplit 
      (https://www-users.cse.umn.edu/~saad/software/SPARSKIT/)

    RCM - Reverse Cuthill McKee Ordering
      (https://people.math.sc.edu/Burkardt/f_src/rcm/rcm.html)

    BLAS - Basic Linear Algebra Subprograms Level 1
      (https://people.math.sc.edu/Burkardt/f_src/blas1_d/blas1_d.html)

    SPARSEKIT - Sparse Matrix Utility Package
      amux, dperm, dvperm, rperm, and cperm
      (https://people.sc.fsu.edu/~jburkardt/f77_src/sparsekit/sparsekit.html)

The following BSD-3 License libraries are used in this USGS product:

    Modern Fortran DAG Library
      Copyright (c) 2018, Jacob Williams
      All rights reserved.
      (https://github.com/jacobwilliams/daglib)

MODFLOW 6 compiler options: /O2 /heap-arrays:0 /fpe:0 /traceback /nologo /fpp
/c /module:win64\mod_mf6\ /object:win64\obj_mf6\

System command used to initiate simulation:
C:\Users\gross.DESKTOP-AIRQM2M\anaconda3\Scripts\mf6.exe

MODFLOW was compiled using uniform precision.

Real Variables
  KIND: 8
  TINY (smallest non-zero value):    2.225074-308
  HUGE (largest value):    1.797693+308
  PRECISION: 15
  SIZE IN BITS: 64

Integer Variables
  KIND: 4
  HUGE (largest value): 2147483647
  SIZE IN BITS: 32

Long Integer Variables
  KIND: 8
  HUGE (largest value): 9223372036854775807
  SIZE IN BITS: 64

Logical Variables
  KIND: 4
  SIZE IN BITS: 32
 
 NAMEFILE OPTIONS:
    FLOWS WILL BE SAVED TO BUDGET FILE SPECIFIED IN OUTPUT CONTROL
 END NAMEFILE OPTIONS:

 DIS -- STRUCTURED GRID DISCRETIZATION PACKAGE, VERSION 2 : 3/27/2014 - INPUT READ FROM MEMPATH: __INPUT__/GWF-P03-MF6/DIS                         


 NPF -- NODE PROPERTY FLOW PACKAGE, VERSION 1, 3/30/2015 INPUT READ FROM MEMPATH: __INPUT__/GWF-P03-MF6/NPF                         


 IC -- Initial Conditions Package, Version 8, 3/28/2015 input read from mempath: __INPUT__/GWF-P03-MF6/IC                          


 Setting Discretization Options
    Model length unit [0=UND, 1=FEET, 2=METERS, 3=CENTIMETERS] set as 2
 End Setting Discretization Options

 Setting Discretization Dimensions
    NLAY = 1
    NROW = 31
    NCOL = 46
 End Setting Discretization Dimensions

 Setting Discretization Griddata
    DELR set from input file
    DELC set from input file
    TOP set from input file
    BOTM set from input file
    IDOMAIN set from input file
 End Setting Discretization Griddata

 Setting NPF Options
    Specific discharge will be calculated at cell centers and written to DATA-SPDIS in budget file when requested.
 End Setting NPF Options

 Setting NPF Griddata
    ICELLTYPE set from input file
    K set from input file
    K33 set from input file
    K22 not provided.  Setting K22 = K.
 End Setting NPF Griddata


 WEL   -- WEL PACKAGE, VERSION 8, 2/22/2014 INPUT READ FROM MEMPATH: __INPUT__/GWF-P03-MF6/WEL-1                       

 PROCESSING WEL BASE OPTIONS
    LISTS OF WEL CELLS WILL BE PRINTED.
    WEL FLOWS WILL BE PRINTED TO LISTING FILE.
 END OF WEL BASE OPTIONS

 PROCESSING WEL OPTIONS
 END OF WEL OPTIONS

 PROCESSING WEL BASE DIMENSIONS
    MAXBOUND =       1
 END OF WEL BASE DIMENSIONS

 CHD   -- CHD PACKAGE, VERSION 8, 2/22/2014 INPUT READ FROM MEMPATH: __INPUT__/GWF-P03-MF6/CHD-1                       

 PROCESSING CHD BASE OPTIONS
 END OF CHD BASE OPTIONS

 PROCESSING CHD BASE DIMENSIONS
    MAXBOUND =      62
 END OF CHD BASE DIMENSIONS
    STRT set from input file

 STO -- STORAGE PACKAGE, VERSION 1, 5/19/2014 INPUT READ FROM MEMPATH: __INPUT__/GWF-P03-MF6/STO                         


 PROCESSING STORAGE OPTIONS
 END OF STORAGE OPTIONS
    BINARY GRID INFORMATION WILL BE WRITTEN TO:
      UNIT NUMBER: 1025
      FILE NAME: gwf-p03-mf6.dis.grb

 OPENED gwf-p03-mf6.dis.grb
 FILE TYPE:DATA(BINARY)   UNIT 1025   STATUS:REPLACE             
 FORMAT:UNFORMATTED            ACCESS:STREAM              
 ACTION:READWRITE           

      THE LAST TIME STEP WILL BE PRINTED
      THE LAST TIME STEP WILL BE PRINTED
 # File generated by Flopy version 3.9.1 on 02/20/2025 at 14:22:14.

 PROCESSING OC OPTIONS

    BUDGET INFORMATION WILL BE WRITTEN TO:
      UNIT NUMBER: 1026
      FILE NAME: gwf-p03-mf6.bud

 OPENED gwf-p03-mf6.bud
 FILE TYPE:DATA(BINARY)   UNIT 1026   STATUS:REPLACE             
 FORMAT:UNFORMATTED            ACCESS:STREAM              
 ACTION:READWRITE           

    HEAD INFORMATION WILL BE WRITTEN TO:
      UNIT NUMBER: 1027
      FILE NAME: gwf-p03-mf6.hds

 OPENED gwf-p03-mf6.hds
 FILE TYPE:DATA(BINARY)   UNIT 1027   STATUS:REPLACE             
 FORMAT:UNFORMATTED            ACCESS:STREAM              
 ACTION:READWRITE           

 END OF OC OPTIONS

start timestep kper="1" kstp="1" mode="normal"


 BEGIN READING OUTPUT CONTROL FOR STRESS PERIOD 1
      THE LAST TIME STEP WILL BE SAVED
      THE LAST TIME STEP WILL BE SAVED
      THE LAST TIME STEP WILL BE PRINTED
      THE LAST TIME STEP WILL BE PRINTED

 END READING OUTPUT CONTROL FOR STRESS PERIOD 1
 ---------------------------------------------------
  WEL NO.    LAYER    ROW     COL    CONCENTRATION  
 ---------------------------------------------------
     1         1      16      16     1000.00000     
 ---------------------------------------------------



end timestep


start timestep kper="1" kstp="2" mode="normal"

 UBDSV1 SAVING           STO-SS ON UNIT   1026 AT TIME STEP      2, STRESS PERIOD      1
 UBDSV1 SAVING     FLOW-JA-FACE ON UNIT   1026 AT TIME STEP      2, STRESS PERIOD      1
 UBDSV06 SAVING       DATA-SPDIS IN MODEL GWF-P03-MF6      PACKAGE NPF             CONNECTED TO MODEL GWF-P03-MF6      PACKAGE NPF              ON UNIT   1026 AT TIME STEP      2, STRESS PERIOD      1
 UBDSV06 SAVING              WEL IN MODEL GWF-P03-MF6      PACKAGE GWF-P03-MF6     CONNECTED TO MODEL GWF-P03-MF6      PACKAGE WEL-1            ON UNIT   1026 AT TIME STEP      2, STRESS PERIOD      1
 UBDSV06 SAVING              CHD IN MODEL GWF-P03-MF6      PACKAGE GWF-P03-MF6     CONNECTED TO MODEL GWF-P03-MF6      PACKAGE CHD-1            ON UNIT   1026 AT TIME STEP      2, STRESS PERIOD      1

 WEL PACKAGE (WEL-1) FLOW RATES   PERIOD      1   STEP        2
 -----------------------------------------------
   NUMBER   CELLID                    RATE      
 -----------------------------------------------
     1      (1,16,16)             1.0000000     
 -----------------------------------------------



1
  HEAD IN LAYER   1 AT END OF TIME STEP   2 IN STRESS PERIOD    1
  ---------------------------------------------------------------------------

                1               2               3               4               5               6               7               8               9              10
               11              12              13              14              15              16              17              18              19              20
               21              22              23              24              25              26              27              28              29              30
               31              32              33              34              35              36              37              38              39              40
               41              42              43              44              45              46
 ................................................................................................................................................................................................................................................................................................................................................................................................................................................................................................................................................................................................................................................................................................................................................................
   1      45.0000         44.0019         43.0037         42.0055         41.0073         40.0091         39.0108         38.0124         37.0139         36.0154    
          35.0167         34.0179         33.0190         32.0199         31.0207         30.0213         29.0217         28.0220         27.0222         26.0221    
          25.0220         24.0217         23.0213         22.0208         21.0202         20.0195         19.0188         18.0180         17.0172         16.0163    
          15.0154         14.0144         13.0135         12.0125         11.0115         10.0105         9.00946         8.00843         7.00739         6.00634    
          5.00529         4.00424         3.00318         2.00212         1.00106         0.00000    
   2      45.0000         44.0019         43.0037         42.0056         41.0074         40.0091         39.0108         38.0125         37.0140         36.0155    
          35.0168         34.0180         33.0191         32.0201         31.0208         30.0215         29.0219         28.0222         27.0223         26.0223    
          25.0221         24.0218         23.0214         22.0209         21.0203         20.0196         19.0189         18.0181         17.0172         16.0163    
          15.0154         14.0145         13.0135         12.0125         11.0115         10.0105         9.00947         8.00843         7.00739         6.00634    
          5.00529         4.00424         3.00318         2.00212         1.00106         0.00000    
   3      45.0000         44.0019         43.0038         42.0056         41.0074         40.0092         39.0110         38.0126         37.0142         36.0157    
          35.0171         34.0183         33.0194         32.0204         31.0212         30.0218         29.0222         28.0225         27.0226         26.0226    
          25.0224         24.0220         23.0216         22.0211         21.0204         20.0197         19.0190         18.0182         17.0173         16.0164    
          15.0155         14.0145         13.0135         12.0125         11.0115         10.0105         9.00948         8.00845         7.00740         6.00635    
          5.00530         4.00424         3.00318         2.00212         1.00106         0.00000    
   4      45.0000         44.0019         43.0038         42.0057         41.0076         40.0094         39.0112         38.0129         37.0145         36.0160    
          35.0174         34.0187         33.0199         32.0209         31.0217         30.0223         29.0227         28.0230         27.0231         26.0230    
          25.0228         24.0224         23.0219         22.0213         21.0207         20.0199         19.0191         18.0183         17.0174         16.0165    
          15.0156         14.0146         13.0136         12.0126         11.0116         10.0105         9.00951         8.00847         7.00742         6.00637    
          5.00531         4.00425         3.00319         2.00213         1.00106         0.00000    
   5      45.0000         44.0020         43.0039         42.0058         41.0077         40.0096         39.0114         38.0132         37.0149         36.0165    
          35.0180         34.0193         33.0205         32.0215         31.0223         30.0230         29.0234         28.0236         27.0237         26.0236    
          25.0233         24.0229         23.0223         22.0217         21.0210         20.0202         19.0194         18.0185         17.0176         16.0166    
          15.0157         14.0147         13.0137         12.0126         11.0116         10.0106         9.00954         8.00849         7.00744         6.00638    
          5.00532         4.00426         3.00320         2.00213         1.00107         0.00000    
   6      45.0000         44.0020         43.0040         42.0060         41.0079         40.0099         39.0118         38.0136         37.0154         36.0170    
          35.0186         34.0200         33.0213         32.0224         31.0232         30.0239         29.0243         28.0245         27.0245         26.0243    
          25.0239         24.0234         23.0228         22.0221         21.0213         20.0205         19.0196         18.0187         17.0178         16.0168    
          15.0158         14.0148         13.0137         12.0127         11.0117         10.0106         9.00958         8.00852         7.00746         6.00640    
          5.00534         4.00427         3.00320         2.00214         1.00107         0.00000    
   7      45.0000         44.0021         43.0041         42.0062         41.0082         40.0102         39.0121         38.0141         37.0159         36.0177    
          35.0194         34.0209         33.0222         32.0234         31.0243         30.0250         29.0254         28.0255         27.0255         26.0252    
          25.0247         24.0241         23.0234         22.0226         21.0218         20.0209         19.0199         18.0190         17.0180         16.0169    
          15.0159         14.0149         13.0138         12.0128         11.0117         10.0107         9.00962         8.00856         7.00749         6.00642    
          5.00535         4.00428         3.00321         2.00214         1.00107         0.00000    
   8      45.0000         44.0021         43.0042         42.0063         41.0084         40.0105         39.0126         38.0146         37.0166         36.0185    
          35.0203         34.0219         33.0234         32.0247         31.0257         30.0264         29.0268         28.0268         27.0266         26.0262    
          25.0256         24.0249         23.0241         22.0232         21.0222         20.0213         19.0202         18.0192         17.0182         16.0171    
          15.0161         14.0150         13.0139         12.0129         11.0118         10.0107         9.00966         8.00859         7.00752         6.00645    
          5.00537         4.00430         3.00322         2.00215         1.00107         0.00000    
   9      45.0000         44.0022         43.0044         42.0065         41.0087         40.0109         39.0130         38.0152         37.0173         36.0193    
          35.0213         34.0232         33.0248         32.0262         31.0273         30.0281         29.0284         28.0284         27.0280         26.0275    
          25.0267         24.0258         23.0248         22.0238         21.0228         20.0217         19.0206         18.0195         17.0184         16.0173    
          15.0162         14.0151         13.0140         12.0130         11.0119         10.0108         9.00971         8.00863         7.00755         6.00647    
          5.00539         4.00431         3.00323         2.00216         1.00108         0.00000    
  10      45.0000         44.0022         43.0045         42.0067         41.0090         40.0113         39.0135         38.0158         37.0181         36.0203    
          35.0225         34.0246         33.0265         32.0281         31.0294         30.0302         29.0305         28.0303         27.0297         26.0289    
          25.0279         24.0268         23.0256         22.0245         21.0233         20.0221         19.0209         18.0198         17.0186         16.0175    
          15.0164         14.0153         13.0141         12.0130         11.0119         10.0108         9.00975         8.00866         7.00758         6.00649    
          5.00541         4.00432         3.00324         2.00216         1.00108         0.00000    
  11      45.0000         44.0023         43.0046         42.0069         41.0093         40.0116         39.0140         38.0164         37.0189         36.0213    
          35.0237         34.0261         33.0284         32.0303         31.0319         30.0328         29.0330         28.0325         27.0316         26.0305    
          25.0292         24.0278         23.0265         22.0251         21.0238         20.0225         19.0213         18.0201         17.0189         16.0177    
          15.0165         14.0154         13.0142         12.0131         11.0120         10.0109         9.00979         8.00870         7.00760         6.00651    
          5.00542         4.00434         3.00325         2.00217         1.00108         0.00000    
  12      45.0000         44.0024         43.0047         42.0071         41.0095         40.0120         39.0145         38.0170         37.0197         36.0223    
          35.0251         34.0278         33.0305         32.0330         31.0350         30.0361         29.0361         28.0352         27.0338         26.0322    
          25.0305         24.0289         23.0273         22.0258         21.0243         20.0229         19.0216         18.0203         17.0191         16.0178    
          15.0167         14.0155         13.0143         12.0132         11.0121         10.0109         9.00983         8.00873         7.00763         6.00653    
          5.00544         4.00435         3.00326         2.00217         1.00109         0.00000    
  13      45.0000         44.0024         43.0048         42.0073         41.0098         40.0123         39.0149         38.0176         37.0204         36.0233    
          35.0264         34.0296         33.0329         32.0362         31.0390         30.0406         29.0401         28.0384         27.0362         26.0339    
          25.0318         24.0298         23.0280         22.0263         21.0248         20.0233         19.0219         18.0205         17.0192         16.0180    
          15.0168         14.0156         13.0144         12.0132         11.0121         10.0110         9.00986         8.00875         7.00764         6.00654    
          5.00545         4.00436         3.00326         2.00218         1.00109         0.00000    
  14      45.0000         44.0024         43.0049         42.0074         41.0099         40.0125         39.0152         38.0180         37.0210         36.0241    
          35.0275         34.0312         33.0354         32.0398         31.0442         30.0471         29.0453         28.0420         27.0386         26.0356    
          25.0330         24.0307         23.0286         22.0268         21.0251         20.0235         19.0221         18.0207         17.0194         16.0181    
          15.0168         14.0156         13.0145         12.0133         11.0121         10.0110         9.00988         8.00877         7.00766         6.00656    
          5.00546         4.00436         3.00327         2.00218         1.00109         0.00000    
  15      45.0000         44.0025         43.0050         42.0075         41.0100         40.0127         39.0154         38.0183         37.0214         36.0247    
          35.0283         34.0325         33.0375         32.0435         31.0510         30.0584         29.0521         28.0457         27.0407         26.0369    
          25.0338         24.0312         23.0290         22.0271         21.0253         20.0237         19.0222         18.0208         17.0194         16.0181    
          15.0169         14.0157         13.0145         12.0133         11.0122         10.0110         9.00990         8.00878         7.00767         6.00656    
          5.00546         4.00437         3.00327         2.00218         1.00109         0.00000    
  16      45.0000         44.0025         43.0050         42.0075         41.0101         40.0127         39.0155         38.0184         37.0215         36.0249    
          35.0286         34.0330         33.0384         32.0458         31.0578         30.0834         29.0589         28.0480         27.0417         26.0374    
          25.0341         24.0314         23.0292         22.0272         21.0254         20.0238         19.0223         18.0208         17.0195         16.0182    
          15.0169         14.0157         13.0145         12.0133         11.0122         10.0110         9.00990         8.00878         7.00767         6.00657    
          5.00546         4.00437         3.00327         2.00218         1.00109         0.00000    
  17      45.0000         44.0025         43.0050         42.0075         41.0100         40.0127         39.0154         38.0183         37.0214         36.0247    
          35.0283         34.0325         33.0375         32.0435         31.0510         30.0584         29.0521         28.0457         27.0407         26.0369    
          25.0338         24.0312         23.0290         22.0271         21.0253         20.0237         19.0222         18.0208         17.0194         16.0181    
          15.0169         14.0157         13.0145         12.0133         11.0122         10.0110         9.00990         8.00878         7.00767         6.00656    
          5.00546         4.00437         3.00327         2.00218         1.00109         0.00000    
  18      45.0000         44.0024         43.0049         42.0074         41.0099         40.0125         39.0152         38.0180         37.0210         36.0241    
          35.0275         34.0312         33.0354         32.0398         31.0442         30.0471         29.0453         28.0420         27.0386         26.0356    
          25.0330         24.0307         23.0286         22.0268         21.0251         20.0235         19.0221         18.0207         17.0194         16.0181    
          15.0168         14.0156         13.0145         12.0133         11.0121         10.0110         9.00988         8.00877         7.00766         6.00656    
          5.00546         4.00436         3.00327         2.00218         1.00109         0.00000    
  19      45.0000         44.0024         43.0048         42.0073         41.0098         40.0123         39.0149         38.0176         37.0204         36.0233    
          35.0264         34.0296         33.0329         32.0362         31.0390         30.0406         29.0401         28.0384         27.0362         26.0339    
          25.0318         24.0298         23.0280         22.0263         21.0248         20.0233         19.0219         18.0205         17.0192         16.0180    
          15.0168         14.0156         13.0144         12.0132         11.0121         10.0110         9.00986         8.00875         7.00764         6.00654    
          5.00545         4.00436         3.00326         2.00218         1.00109         0.00000    
  20      45.0000         44.0024         43.0047         42.0071         41.0095         40.0120         39.0145         38.0170         37.0197         36.0223    
          35.0251         34.0278         33.0305         32.0330         31.0350         30.0361         29.0361         28.0352         27.0338         26.0322    
          25.0305         24.0289         23.0273         22.0258         21.0243         20.0229         19.0216         18.0203         17.0191         16.0178    
          15.0167         14.0155         13.0143         12.0132         11.0121         10.0109         9.00983         8.00873         7.00763         6.00653    
          5.00544         4.00435         3.00326         2.00217         1.00109         0.00000    
  21      45.0000         44.0023         43.0046         42.0069         41.0093         40.0116         39.0140         38.0164         37.0189         36.0213    
          35.0237         34.0261         33.0284         32.0303         31.0319         30.0328         29.0330         28.0325         27.0316         26.0305    
          25.0292         24.0278         23.0265         22.0251         21.0238         20.0225         19.0213         18.0201         17.0189         16.0177    
          15.0165         14.0154         13.0142         12.0131         11.0120         10.0109         9.00979         8.00870         7.00760         6.00651    
          5.00542         4.00434         3.00325         2.00217         1.00108         0.00000    
  22      45.0000         44.0022         43.0045         42.0067         41.0090         40.0113         39.0135         38.0158         37.0181         36.0203    
          35.0225         34.0246         33.0265         32.0281         31.0294         30.0302         29.0305         28.0303         27.0297         26.0289    
          25.0279         24.0268         23.0256         22.0245         21.0233         20.0221         19.0209         18.0198         17.0186         16.0175    
          15.0164         14.0153         13.0141         12.0130         11.0119         10.0108         9.00975         8.00866         7.00758         6.00649    
          5.00541         4.00432         3.00324         2.00216         1.00108         0.00000    
  23      45.0000         44.0022         43.0044         42.0065         41.0087         40.0109         39.0130         38.0152         37.0173         36.0193    
          35.0213         34.0232         33.0248         32.0262         31.0273         30.0281         29.0284         28.0284         27.0280         26.0275    
          25.0267         24.0258         23.0248         22.0238         21.0228         20.0217         19.0206         18.0195         17.0184         16.0173    
          15.0162         14.0151         13.0140         12.0130         11.0119         10.0108         9.00971         8.00863         7.00755         6.00647    
          5.00539         4.00431         3.00323         2.00216         1.00108         0.00000    
  24      45.0000         44.0021         43.0042         42.0063         41.0084         40.0105         39.0126         38.0146         37.0166         36.0185    
          35.0203         34.0219         33.0234         32.0247         31.0257         30.0264         29.0268         28.0268         27.0266         26.0262    
          25.0256         24.0249         23.0241         22.0232         21.0222         20.0213         19.0202         18.0192         17.0182         16.0171    
          15.0161         14.0150         13.0139         12.0129         11.0118         10.0107         9.00966         8.00859         7.00752         6.00645    
          5.00537         4.00430         3.00322         2.00215         1.00107         0.00000    
  25      45.0000         44.0021         43.0041         42.0062         41.0082         40.0102         39.0121         38.0141         37.0159         36.0177    
          35.0194         34.0209         33.0222         32.0234         31.0243         30.0250         29.0254         28.0255         27.0255         26.0252    
          25.0247         24.0241         23.0234         22.0226         21.0218         20.0209         19.0199         18.0190         17.0180         16.0169    
          15.0159         14.0149         13.0138         12.0128         11.0117         10.0107         9.00962         8.00856         7.00749         6.00642    
          5.00535         4.00428         3.00321         2.00214         1.00107         0.00000    
  26      45.0000         44.0020         43.0040         42.0060         41.0079         40.0099         39.0118         38.0136         37.0154         36.0170    
          35.0186         34.0200         33.0213         32.0224         31.0232         30.0239         29.0243         28.0245         27.0245         26.0243    
          25.0239         24.0234         23.0228         22.0221         21.0213         20.0205         19.0196         18.0187         17.0178         16.0168    
          15.0158         14.0148         13.0137         12.0127         11.0117         10.0106         9.00958         8.00852         7.00746         6.00640    
          5.00534         4.00427         3.00320         2.00214         1.00107         0.00000    
  27      45.0000         44.0020         43.0039         42.0058         41.0077         40.0096         39.0114         38.0132         37.0149         36.0165    
          35.0180         34.0193         33.0205         32.0215         31.0223         30.0230         29.0234         28.0236         27.0237         26.0236    
          25.0233         24.0229         23.0223         22.0217         21.0210         20.0202         19.0194         18.0185         17.0176         16.0166    
          15.0157         14.0147         13.0137         12.0126         11.0116         10.0106         9.00954         8.00849         7.00744         6.00638    
          5.00532         4.00426         3.00320         2.00213         1.00107         0.00000    
  28      45.0000         44.0019         43.0038         42.0057         41.0076         40.0094         39.0112         38.0129         37.0145         36.0160    
          35.0174         34.0187         33.0199         32.0209         31.0217         30.0223         29.0227         28.0230         27.0231         26.0230    
          25.0228         24.0224         23.0219         22.0213         21.0207         20.0199         19.0191         18.0183         17.0174         16.0165    
          15.0156         14.0146         13.0136         12.0126         11.0116         10.0105         9.00951         8.00847         7.00742         6.00637    
          5.00531         4.00425         3.00319         2.00213         1.00106         0.00000    
  29      45.0000         44.0019         43.0038         42.0056         41.0074         40.0092         39.0110         38.0126         37.0142         36.0157    
          35.0171         34.0183         33.0194         32.0204         31.0212         30.0218         29.0222         28.0225         27.0226         26.0226    
          25.0224         24.0220         23.0216         22.0211         21.0204         20.0197         19.0190         18.0182         17.0173         16.0164    
          15.0155         14.0145         13.0135         12.0125         11.0115         10.0105         9.00948         8.00845         7.00740         6.00635    
          5.00530         4.00424         3.00318         2.00212         1.00106         0.00000    
  30      45.0000         44.0019         43.0037         42.0056         41.0074         40.0091         39.0108         38.0125         37.0140         36.0155    
          35.0168         34.0180         33.0191         32.0201         31.0208         30.0215         29.0219         28.0222         27.0223         26.0223    
          25.0221         24.0218         23.0214         22.0209         21.0203         20.0196         19.0189         18.0181         17.0172         16.0163    
          15.0154         14.0145         13.0135         12.0125         11.0115         10.0105         9.00947         8.00843         7.00739         6.00634    
          5.00529         4.00424         3.00318         2.00212         1.00106         0.00000    
  31      45.0000         44.0019         43.0037         42.0055         41.0073         40.0091         39.0108         38.0124         37.0139         36.0154    
          35.0167         34.0179         33.0190         32.0199         31.0207         30.0213         29.0217         28.0220         27.0222         26.0221    
          25.0220         24.0217         23.0213         22.0208         21.0202         20.0195         19.0188         18.0180         17.0172         16.0163    
          15.0154         14.0144         13.0135         12.0125         11.0115         10.0105         9.00946         8.00843         7.00739         6.00634    
          5.00529         4.00424         3.00318         2.00212         1.00106         0.00000    

 HEAD WILL BE SAVED ON UNIT 1027 AT END OF TIME STEP    2, STRESS PERIOD    1


  VOLUME BUDGET FOR ENTIRE MODEL AT END OF TIME STEP    2, STRESS PERIOD   1
  ---------------------------------------------------------------------------------------------------

     CUMULATIVE VOLUME      L**3       RATES FOR THIS TIME STEP      L**3/T          PACKAGE NAME    
     ------------------                 ------------------------                     ----------------

           IN:                                      IN:
           ---                                      ---
              STO-SS =           0.0000                STO-SS =           0.0000     STORAGE                          
                 WEL =           1.0000                   WEL =           1.0000     WEL-1                            
                 CHD =         309.3333                   CHD =         309.3333     CHD-1                            

            TOTAL IN =         310.3333              TOTAL IN =         310.3333

          OUT:                                     OUT:
          ----                                     ----
              STO-SS =           0.0000                STO-SS =           0.0000     STORAGE                          
                 WEL =           0.0000                   WEL =           0.0000     WEL-1                            
                 CHD =         310.3333                   CHD =         310.3333     CHD-1                            

           TOTAL OUT =         310.3333             TOTAL OUT =         310.3333

            IN - OUT =       2.0269E-07              IN - OUT =       1.8736E-07

 PERCENT DISCREPANCY =           0.00     PERCENT DISCREPANCY =           0.00




         TIME SUMMARY AT END OF TIME STEP    2 IN STRESS PERIOD    1
                    SECONDS     MINUTES      HOURS       DAYS        YEARS
                    -----------------------------------------------------------
   TIME STEP LENGTH  43200.      720.00      12.000     0.50000     1.36893E-03
 STRESS PERIOD TIME  86400.      1440.0      24.000      1.0000     2.73785E-03
         TOTAL TIME  86400.      1440.0      24.000      1.0000     2.73785E-03


end timestep


start timestep kper="2" kstp="1" mode="normal"


 END OF FILE DETECTED IN OUTPUT CONTROL.
 CURRENT OUTPUT CONTROL SETTINGS WILL BE 
 REPEATED UNTIL THE END OF THE SIMULATION.

 OUTPUT CONTROL FOR STRESS PERIOD 2 IS REPEATED USING SETTINGS FROM A PREVIOUS STRESS PERIOD.

end timestep


start timestep kper="2" kstp="2" mode="normal"


end timestep


start timestep kper="2" kstp="3" mode="normal"


end timestep


start timestep kper="2" kstp="4" mode="normal"


end timestep


start timestep kper="2" kstp="5" mode="normal"


end timestep


start timestep kper="2" kstp="6" mode="normal"


end timestep


start timestep kper="2" kstp="7" mode="normal"


end timestep


start timestep kper="2" kstp="8" mode="normal"


end timestep


start timestep kper="2" kstp="9" mode="normal"


end timestep


start timestep kper="2" kstp="10" mode="normal"


end timestep


start timestep kper="2" kstp="11" mode="normal"


end timestep


start timestep kper="2" kstp="12" mode="normal"


end timestep


start timestep kper="2" kstp="13" mode="normal"


end timestep


start timestep kper="2" kstp="14" mode="normal"


end timestep


start timestep kper="2" kstp="15" mode="normal"


end timestep


start timestep kper="2" kstp="16" mode="normal"


end timestep


start timestep kper="2" kstp="17" mode="normal"


end timestep


start timestep kper="2" kstp="18" mode="normal"


end timestep


start timestep kper="2" kstp="19" mode="normal"


end timestep


start timestep kper="2" kstp="20" mode="normal"


end timestep


start timestep kper="2" kstp="21" mode="normal"


end timestep


start timestep kper="2" kstp="22" mode="normal"


end timestep


start timestep kper="2" kstp="23" mode="normal"


end timestep


start timestep kper="2" kstp="24" mode="normal"


end timestep


start timestep kper="2" kstp="25" mode="normal"


end timestep


start timestep kper="2" kstp="26" mode="normal"


end timestep


start timestep kper="2" kstp="27" mode="normal"


end timestep


start timestep kper="2" kstp="28" mode="normal"


end timestep


start timestep kper="2" kstp="29" mode="normal"


end timestep


start timestep kper="2" kstp="30" mode="normal"


end timestep


start timestep kper="2" kstp="31" mode="normal"


end timestep


start timestep kper="2" kstp="32" mode="normal"


end timestep


start timestep kper="2" kstp="33" mode="normal"


end timestep


start timestep kper="2" kstp="34" mode="normal"


end timestep


start timestep kper="2" kstp="35" mode="normal"


end timestep


start timestep kper="2" kstp="36" mode="normal"


end timestep


start timestep kper="2" kstp="37" mode="normal"


end timestep


start timestep kper="2" kstp="38" mode="normal"


end timestep


start timestep kper="2" kstp="39" mode="normal"


end timestep


start timestep kper="2" kstp="40" mode="normal"


end timestep


start timestep kper="2" kstp="41" mode="normal"


end timestep


start timestep kper="2" kstp="42" mode="normal"


end timestep


start timestep kper="2" kstp="43" mode="normal"


end timestep


start timestep kper="2" kstp="44" mode="normal"


end timestep


start timestep kper="2" kstp="45" mode="normal"


end timestep


start timestep kper="2" kstp="46" mode="normal"


end timestep


start timestep kper="2" kstp="47" mode="normal"


end timestep


start timestep kper="2" kstp="48" mode="normal"


end timestep


start timestep kper="2" kstp="49" mode="normal"


end timestep


start timestep kper="2" kstp="50" mode="normal"


end timestep


start timestep kper="2" kstp="51" mode="normal"


end timestep


start timestep kper="2" kstp="52" mode="normal"


end timestep


start timestep kper="2" kstp="53" mode="normal"


end timestep


start timestep kper="2" kstp="54" mode="normal"


end timestep


start timestep kper="2" kstp="55" mode="normal"


end timestep


start timestep kper="2" kstp="56" mode="normal"


end timestep


start timestep kper="2" kstp="57" mode="normal"


end timestep


start timestep kper="2" kstp="58" mode="normal"


end timestep


start timestep kper="2" kstp="59" mode="normal"


end timestep


start timestep kper="2" kstp="60" mode="normal"


end timestep


start timestep kper="2" kstp="61" mode="normal"


end timestep


start timestep kper="2" kstp="62" mode="normal"


end timestep


start timestep kper="2" kstp="63" mode="normal"


end timestep


start timestep kper="2" kstp="64" mode="normal"


end timestep


start timestep kper="2" kstp="65" mode="normal"


end timestep


start timestep kper="2" kstp="66" mode="normal"


end timestep


start timestep kper="2" kstp="67" mode="normal"


end timestep


start timestep kper="2" kstp="68" mode="normal"


end timestep


start timestep kper="2" kstp="69" mode="normal"


end timestep


start timestep kper="2" kstp="70" mode="normal"


end timestep


start timestep kper="2" kstp="71" mode="normal"


end timestep


start timestep kper="2" kstp="72" mode="normal"


end timestep


start timestep kper="2" kstp="73" mode="normal"


end timestep


start timestep kper="2" kstp="74" mode="normal"


end timestep


start timestep kper="2" kstp="75" mode="normal"


end timestep


start timestep kper="2" kstp="76" mode="normal"


end timestep


start timestep kper="2" kstp="77" mode="normal"


end timestep


start timestep kper="2" kstp="78" mode="normal"


end timestep


start timestep kper="2" kstp="79" mode="normal"


end timestep


start timestep kper="2" kstp="80" mode="normal"


end timestep


start timestep kper="2" kstp="81" mode="normal"


end timestep


start timestep kper="2" kstp="82" mode="normal"


end timestep


start timestep kper="2" kstp="83" mode="normal"


end timestep


start timestep kper="2" kstp="84" mode="normal"


end timestep


start timestep kper="2" kstp="85" mode="normal"


end timestep


start timestep kper="2" kstp="86" mode="normal"


end timestep


start timestep kper="2" kstp="87" mode="normal"


end timestep


start timestep kper="2" kstp="88" mode="normal"


end timestep


start timestep kper="2" kstp="89" mode="normal"


end timestep


start timestep kper="2" kstp="90" mode="normal"


end timestep


start timestep kper="2" kstp="91" mode="normal"


end timestep


start timestep kper="2" kstp="92" mode="normal"


end timestep


start timestep kper="2" kstp="93" mode="normal"


end timestep


start timestep kper="2" kstp="94" mode="normal"


end timestep


start timestep kper="2" kstp="95" mode="normal"


end timestep


start timestep kper="2" kstp="96" mode="normal"


end timestep


start timestep kper="2" kstp="97" mode="normal"


end timestep


start timestep kper="2" kstp="98" mode="normal"


end timestep


start timestep kper="2" kstp="99" mode="normal"


end timestep


start timestep kper="2" kstp="100" mode="normal"


end timestep


start timestep kper="2" kstp="101" mode="normal"


end timestep


start timestep kper="2" kstp="102" mode="normal"


end timestep


start timestep kper="2" kstp="103" mode="normal"


end timestep


start timestep kper="2" kstp="104" mode="normal"


end timestep


start timestep kper="2" kstp="105" mode="normal"


end timestep


start timestep kper="2" kstp="106" mode="normal"


end timestep


start timestep kper="2" kstp="107" mode="normal"


end timestep


start timestep kper="2" kstp="108" mode="normal"


end timestep


start timestep kper="2" kstp="109" mode="normal"


end timestep


start timestep kper="2" kstp="110" mode="normal"


end timestep


start timestep kper="2" kstp="111" mode="normal"


end timestep


start timestep kper="2" kstp="112" mode="normal"


end timestep


start timestep kper="2" kstp="113" mode="normal"


end timestep


start timestep kper="2" kstp="114" mode="normal"


end timestep


start timestep kper="2" kstp="115" mode="normal"


end timestep


start timestep kper="2" kstp="116" mode="normal"


end timestep


start timestep kper="2" kstp="117" mode="normal"


end timestep


start timestep kper="2" kstp="118" mode="normal"


end timestep


start timestep kper="2" kstp="119" mode="normal"


end timestep


start timestep kper="2" kstp="120" mode="normal"


end timestep


start timestep kper="2" kstp="121" mode="normal"


end timestep


start timestep kper="2" kstp="122" mode="normal"


end timestep


start timestep kper="2" kstp="123" mode="normal"


end timestep


start timestep kper="2" kstp="124" mode="normal"


end timestep


start timestep kper="2" kstp="125" mode="normal"


end timestep


start timestep kper="2" kstp="126" mode="normal"


end timestep


start timestep kper="2" kstp="127" mode="normal"


end timestep


start timestep kper="2" kstp="128" mode="normal"


end timestep


start timestep kper="2" kstp="129" mode="normal"


end timestep


start timestep kper="2" kstp="130" mode="normal"


end timestep


start timestep kper="2" kstp="131" mode="normal"


end timestep


start timestep kper="2" kstp="132" mode="normal"


end timestep


start timestep kper="2" kstp="133" mode="normal"


end timestep


start timestep kper="2" kstp="134" mode="normal"


end timestep


start timestep kper="2" kstp="135" mode="normal"


end timestep


start timestep kper="2" kstp="136" mode="normal"


end timestep


start timestep kper="2" kstp="137" mode="normal"


end timestep


start timestep kper="2" kstp="138" mode="normal"


end timestep


start timestep kper="2" kstp="139" mode="normal"


end timestep


start timestep kper="2" kstp="140" mode="normal"


end timestep


start timestep kper="2" kstp="141" mode="normal"


end timestep


start timestep kper="2" kstp="142" mode="normal"


end timestep


start timestep kper="2" kstp="143" mode="normal"


end timestep


start timestep kper="2" kstp="144" mode="normal"


end timestep


start timestep kper="2" kstp="145" mode="normal"


end timestep


start timestep kper="2" kstp="146" mode="normal"


end timestep


start timestep kper="2" kstp="147" mode="normal"


end timestep


start timestep kper="2" kstp="148" mode="normal"


end timestep


start timestep kper="2" kstp="149" mode="normal"


end timestep


start timestep kper="2" kstp="150" mode="normal"


end timestep


start timestep kper="2" kstp="151" mode="normal"


end timestep


start timestep kper="2" kstp="152" mode="normal"


end timestep


start timestep kper="2" kstp="153" mode="normal"


end timestep


start timestep kper="2" kstp="154" mode="normal"


end timestep


start timestep kper="2" kstp="155" mode="normal"


end timestep


start timestep kper="2" kstp="156" mode="normal"


end timestep


start timestep kper="2" kstp="157" mode="normal"


end timestep


start timestep kper="2" kstp="158" mode="normal"


end timestep


start timestep kper="2" kstp="159" mode="normal"


end timestep


start timestep kper="2" kstp="160" mode="normal"


end timestep


start timestep kper="2" kstp="161" mode="normal"


end timestep


start timestep kper="2" kstp="162" mode="normal"


end timestep


start timestep kper="2" kstp="163" mode="normal"


end timestep


start timestep kper="2" kstp="164" mode="normal"


end timestep


start timestep kper="2" kstp="165" mode="normal"


end timestep


start timestep kper="2" kstp="166" mode="normal"


end timestep


start timestep kper="2" kstp="167" mode="normal"


end timestep


start timestep kper="2" kstp="168" mode="normal"


end timestep


start timestep kper="2" kstp="169" mode="normal"


end timestep


start timestep kper="2" kstp="170" mode="normal"


end timestep


start timestep kper="2" kstp="171" mode="normal"


end timestep


start timestep kper="2" kstp="172" mode="normal"


end timestep


start timestep kper="2" kstp="173" mode="normal"


end timestep


start timestep kper="2" kstp="174" mode="normal"


end timestep


start timestep kper="2" kstp="175" mode="normal"


end timestep


start timestep kper="2" kstp="176" mode="normal"


end timestep


start timestep kper="2" kstp="177" mode="normal"


end timestep


start timestep kper="2" kstp="178" mode="normal"


end timestep


start timestep kper="2" kstp="179" mode="normal"


end timestep


start timestep kper="2" kstp="180" mode="normal"


end timestep


start timestep kper="2" kstp="181" mode="normal"


end timestep


start timestep kper="2" kstp="182" mode="normal"


end timestep


start timestep kper="2" kstp="183" mode="normal"


end timestep


start timestep kper="2" kstp="184" mode="normal"


end timestep


start timestep kper="2" kstp="185" mode="normal"


end timestep


start timestep kper="2" kstp="186" mode="normal"


end timestep


start timestep kper="2" kstp="187" mode="normal"


end timestep


start timestep kper="2" kstp="188" mode="normal"


end timestep


start timestep kper="2" kstp="189" mode="normal"


end timestep


start timestep kper="2" kstp="190" mode="normal"


end timestep


start timestep kper="2" kstp="191" mode="normal"


end timestep


start timestep kper="2" kstp="192" mode="normal"


end timestep


start timestep kper="2" kstp="193" mode="normal"


end timestep


start timestep kper="2" kstp="194" mode="normal"


end timestep


start timestep kper="2" kstp="195" mode="normal"


end timestep


start timestep kper="2" kstp="196" mode="normal"


end timestep


start timestep kper="2" kstp="197" mode="normal"


end timestep


start timestep kper="2" kstp="198" mode="normal"


end timestep


start timestep kper="2" kstp="199" mode="normal"


end timestep


start timestep kper="2" kstp="200" mode="normal"


end timestep


start timestep kper="2" kstp="201" mode="normal"


end timestep


start timestep kper="2" kstp="202" mode="normal"


end timestep


start timestep kper="2" kstp="203" mode="normal"


end timestep


start timestep kper="2" kstp="204" mode="normal"


end timestep


start timestep kper="2" kstp="205" mode="normal"


end timestep


start timestep kper="2" kstp="206" mode="normal"


end timestep


start timestep kper="2" kstp="207" mode="normal"


end timestep


start timestep kper="2" kstp="208" mode="normal"


end timestep


start timestep kper="2" kstp="209" mode="normal"


end timestep


start timestep kper="2" kstp="210" mode="normal"


end timestep


start timestep kper="2" kstp="211" mode="normal"


end timestep


start timestep kper="2" kstp="212" mode="normal"


end timestep


start timestep kper="2" kstp="213" mode="normal"


end timestep


start timestep kper="2" kstp="214" mode="normal"


end timestep


start timestep kper="2" kstp="215" mode="normal"


end timestep


start timestep kper="2" kstp="216" mode="normal"


end timestep


start timestep kper="2" kstp="217" mode="normal"


end timestep


start timestep kper="2" kstp="218" mode="normal"


end timestep


start timestep kper="2" kstp="219" mode="normal"


end timestep


start timestep kper="2" kstp="220" mode="normal"


end timestep


start timestep kper="2" kstp="221" mode="normal"


end timestep


start timestep kper="2" kstp="222" mode="normal"


end timestep


start timestep kper="2" kstp="223" mode="normal"


end timestep


start timestep kper="2" kstp="224" mode="normal"


end timestep


start timestep kper="2" kstp="225" mode="normal"


end timestep


start timestep kper="2" kstp="226" mode="normal"


end timestep


start timestep kper="2" kstp="227" mode="normal"


end timestep


start timestep kper="2" kstp="228" mode="normal"


end timestep


start timestep kper="2" kstp="229" mode="normal"


end timestep


start timestep kper="2" kstp="230" mode="normal"


end timestep


start timestep kper="2" kstp="231" mode="normal"


end timestep


start timestep kper="2" kstp="232" mode="normal"


end timestep


start timestep kper="2" kstp="233" mode="normal"


end timestep


start timestep kper="2" kstp="234" mode="normal"


end timestep


start timestep kper="2" kstp="235" mode="normal"


end timestep


start timestep kper="2" kstp="236" mode="normal"


end timestep


start timestep kper="2" kstp="237" mode="normal"


end timestep


start timestep kper="2" kstp="238" mode="normal"


end timestep


start timestep kper="2" kstp="239" mode="normal"


end timestep


start timestep kper="2" kstp="240" mode="normal"


end timestep


start timestep kper="2" kstp="241" mode="normal"


end timestep


start timestep kper="2" kstp="242" mode="normal"


end timestep


start timestep kper="2" kstp="243" mode="normal"


end timestep


start timestep kper="2" kstp="244" mode="normal"


end timestep


start timestep kper="2" kstp="245" mode="normal"


end timestep


start timestep kper="2" kstp="246" mode="normal"


end timestep


start timestep kper="2" kstp="247" mode="normal"


end timestep


start timestep kper="2" kstp="248" mode="normal"


end timestep


start timestep kper="2" kstp="249" mode="normal"


end timestep


start timestep kper="2" kstp="250" mode="normal"


end timestep


start timestep kper="2" kstp="251" mode="normal"


end timestep


start timestep kper="2" kstp="252" mode="normal"


end timestep


start timestep kper="2" kstp="253" mode="normal"


end timestep


start timestep kper="2" kstp="254" mode="normal"


end timestep


start timestep kper="2" kstp="255" mode="normal"


end timestep


start timestep kper="2" kstp="256" mode="normal"


end timestep


start timestep kper="2" kstp="257" mode="normal"


end timestep


start timestep kper="2" kstp="258" mode="normal"


end timestep


start timestep kper="2" kstp="259" mode="normal"


end timestep


start timestep kper="2" kstp="260" mode="normal"


end timestep


start timestep kper="2" kstp="261" mode="normal"


end timestep


start timestep kper="2" kstp="262" mode="normal"


end timestep


start timestep kper="2" kstp="263" mode="normal"


end timestep


start timestep kper="2" kstp="264" mode="normal"


end timestep


start timestep kper="2" kstp="265" mode="normal"


end timestep


start timestep kper="2" kstp="266" mode="normal"


end timestep


start timestep kper="2" kstp="267" mode="normal"


end timestep


start timestep kper="2" kstp="268" mode="normal"


end timestep


start timestep kper="2" kstp="269" mode="normal"


end timestep


start timestep kper="2" kstp="270" mode="normal"


end timestep


start timestep kper="2" kstp="271" mode="normal"


end timestep


start timestep kper="2" kstp="272" mode="normal"


end timestep


start timestep kper="2" kstp="273" mode="normal"


end timestep


start timestep kper="2" kstp="274" mode="normal"


end timestep


start timestep kper="2" kstp="275" mode="normal"


end timestep


start timestep kper="2" kstp="276" mode="normal"


end timestep


start timestep kper="2" kstp="277" mode="normal"


end timestep


start timestep kper="2" kstp="278" mode="normal"


end timestep


start timestep kper="2" kstp="279" mode="normal"


end timestep


start timestep kper="2" kstp="280" mode="normal"


end timestep


start timestep kper="2" kstp="281" mode="normal"


end timestep


start timestep kper="2" kstp="282" mode="normal"


end timestep


start timestep kper="2" kstp="283" mode="normal"


end timestep


start timestep kper="2" kstp="284" mode="normal"


end timestep


start timestep kper="2" kstp="285" mode="normal"


end timestep


start timestep kper="2" kstp="286" mode="normal"


end timestep


start timestep kper="2" kstp="287" mode="normal"


end timestep


start timestep kper="2" kstp="288" mode="normal"


end timestep


start timestep kper="2" kstp="289" mode="normal"


end timestep


start timestep kper="2" kstp="290" mode="normal"


end timestep


start timestep kper="2" kstp="291" mode="normal"


end timestep


start timestep kper="2" kstp="292" mode="normal"


end timestep


start timestep kper="2" kstp="293" mode="normal"


end timestep


start timestep kper="2" kstp="294" mode="normal"


end timestep


start timestep kper="2" kstp="295" mode="normal"


end timestep


start timestep kper="2" kstp="296" mode="normal"


end timestep


start timestep kper="2" kstp="297" mode="normal"


end timestep


start timestep kper="2" kstp="298" mode="normal"


end timestep


start timestep kper="2" kstp="299" mode="normal"


end timestep


start timestep kper="2" kstp="300" mode="normal"


end timestep


start timestep kper="2" kstp="301" mode="normal"


end timestep


start timestep kper="2" kstp="302" mode="normal"


end timestep


start timestep kper="2" kstp="303" mode="normal"


end timestep


start timestep kper="2" kstp="304" mode="normal"


end timestep


start timestep kper="2" kstp="305" mode="normal"


end timestep


start timestep kper="2" kstp="306" mode="normal"


end timestep


start timestep kper="2" kstp="307" mode="normal"


end timestep


start timestep kper="2" kstp="308" mode="normal"


end timestep


start timestep kper="2" kstp="309" mode="normal"


end timestep


start timestep kper="2" kstp="310" mode="normal"


end timestep


start timestep kper="2" kstp="311" mode="normal"


end timestep


start timestep kper="2" kstp="312" mode="normal"


end timestep


start timestep kper="2" kstp="313" mode="normal"


end timestep


start timestep kper="2" kstp="314" mode="normal"


end timestep


start timestep kper="2" kstp="315" mode="normal"


end timestep


start timestep kper="2" kstp="316" mode="normal"


end timestep


start timestep kper="2" kstp="317" mode="normal"


end timestep


start timestep kper="2" kstp="318" mode="normal"


end timestep


start timestep kper="2" kstp="319" mode="normal"


end timestep


start timestep kper="2" kstp="320" mode="normal"


end timestep


start timestep kper="2" kstp="321" mode="normal"


end timestep


start timestep kper="2" kstp="322" mode="normal"


end timestep


start timestep kper="2" kstp="323" mode="normal"


end timestep


start timestep kper="2" kstp="324" mode="normal"


end timestep


start timestep kper="2" kstp="325" mode="normal"


end timestep


start timestep kper="2" kstp="326" mode="normal"


end timestep


start timestep kper="2" kstp="327" mode="normal"


end timestep


start timestep kper="2" kstp="328" mode="normal"


end timestep


start timestep kper="2" kstp="329" mode="normal"


end timestep


start timestep kper="2" kstp="330" mode="normal"


end timestep


start timestep kper="2" kstp="331" mode="normal"


end timestep


start timestep kper="2" kstp="332" mode="normal"


end timestep


start timestep kper="2" kstp="333" mode="normal"


end timestep


start timestep kper="2" kstp="334" mode="normal"


end timestep


start timestep kper="2" kstp="335" mode="normal"


end timestep


start timestep kper="2" kstp="336" mode="normal"


end timestep


start timestep kper="2" kstp="337" mode="normal"


end timestep


start timestep kper="2" kstp="338" mode="normal"


end timestep


start timestep kper="2" kstp="339" mode="normal"


end timestep


start timestep kper="2" kstp="340" mode="normal"


end timestep


start timestep kper="2" kstp="341" mode="normal"


end timestep


start timestep kper="2" kstp="342" mode="normal"


end timestep


start timestep kper="2" kstp="343" mode="normal"


end timestep


start timestep kper="2" kstp="344" mode="normal"


end timestep


start timestep kper="2" kstp="345" mode="normal"


end timestep


start timestep kper="2" kstp="346" mode="normal"


end timestep


start timestep kper="2" kstp="347" mode="normal"


end timestep


start timestep kper="2" kstp="348" mode="normal"


end timestep


start timestep kper="2" kstp="349" mode="normal"


end timestep


start timestep kper="2" kstp="350" mode="normal"


end timestep


start timestep kper="2" kstp="351" mode="normal"


end timestep


start timestep kper="2" kstp="352" mode="normal"


end timestep


start timestep kper="2" kstp="353" mode="normal"


end timestep


start timestep kper="2" kstp="354" mode="normal"


end timestep


start timestep kper="2" kstp="355" mode="normal"


end timestep


start timestep kper="2" kstp="356" mode="normal"


end timestep


start timestep kper="2" kstp="357" mode="normal"


end timestep


start timestep kper="2" kstp="358" mode="normal"


end timestep


start timestep kper="2" kstp="359" mode="normal"


end timestep


start timestep kper="2" kstp="360" mode="normal"


end timestep


start timestep kper="2" kstp="361" mode="normal"


end timestep


start timestep kper="2" kstp="362" mode="normal"


end timestep


start timestep kper="2" kstp="363" mode="normal"


end timestep


start timestep kper="2" kstp="364" mode="normal"


end timestep


start timestep kper="2" kstp="365" mode="normal"


end timestep


start timestep kper="2" kstp="366" mode="normal"


end timestep


start timestep kper="2" kstp="367" mode="normal"


end timestep


start timestep kper="2" kstp="368" mode="normal"


end timestep


start timestep kper="2" kstp="369" mode="normal"


end timestep


start timestep kper="2" kstp="370" mode="normal"


end timestep


start timestep kper="2" kstp="371" mode="normal"


end timestep


start timestep kper="2" kstp="372" mode="normal"


end timestep


start timestep kper="2" kstp="373" mode="normal"


end timestep


start timestep kper="2" kstp="374" mode="normal"


end timestep


start timestep kper="2" kstp="375" mode="normal"


end timestep


start timestep kper="2" kstp="376" mode="normal"


end timestep


start timestep kper="2" kstp="377" mode="normal"


end timestep


start timestep kper="2" kstp="378" mode="normal"


end timestep


start timestep kper="2" kstp="379" mode="normal"


end timestep


start timestep kper="2" kstp="380" mode="normal"


end timestep


start timestep kper="2" kstp="381" mode="normal"


end timestep


start timestep kper="2" kstp="382" mode="normal"


end timestep


start timestep kper="2" kstp="383" mode="normal"


end timestep


start timestep kper="2" kstp="384" mode="normal"


end timestep


start timestep kper="2" kstp="385" mode="normal"


end timestep


start timestep kper="2" kstp="386" mode="normal"


end timestep


start timestep kper="2" kstp="387" mode="normal"


end timestep


start timestep kper="2" kstp="388" mode="normal"


end timestep


start timestep kper="2" kstp="389" mode="normal"


end timestep


start timestep kper="2" kstp="390" mode="normal"


end timestep


start timestep kper="2" kstp="391" mode="normal"


end timestep


start timestep kper="2" kstp="392" mode="normal"


end timestep


start timestep kper="2" kstp="393" mode="normal"


end timestep


start timestep kper="2" kstp="394" mode="normal"


end timestep


start timestep kper="2" kstp="395" mode="normal"


end timestep


start timestep kper="2" kstp="396" mode="normal"


end timestep


start timestep kper="2" kstp="397" mode="normal"


end timestep


start timestep kper="2" kstp="398" mode="normal"


end timestep


start timestep kper="2" kstp="399" mode="normal"


end timestep


start timestep kper="2" kstp="400" mode="normal"


end timestep


start timestep kper="2" kstp="401" mode="normal"


end timestep


start timestep kper="2" kstp="402" mode="normal"


end timestep


start timestep kper="2" kstp="403" mode="normal"


end timestep


start timestep kper="2" kstp="404" mode="normal"


end timestep


start timestep kper="2" kstp="405" mode="normal"


end timestep


start timestep kper="2" kstp="406" mode="normal"


end timestep


start timestep kper="2" kstp="407" mode="normal"


end timestep


start timestep kper="2" kstp="408" mode="normal"


end timestep


start timestep kper="2" kstp="409" mode="normal"


end timestep


start timestep kper="2" kstp="410" mode="normal"


end timestep


start timestep kper="2" kstp="411" mode="normal"


end timestep


start timestep kper="2" kstp="412" mode="normal"


end timestep


start timestep kper="2" kstp="413" mode="normal"


end timestep


start timestep kper="2" kstp="414" mode="normal"


end timestep


start timestep kper="2" kstp="415" mode="normal"


end timestep


start timestep kper="2" kstp="416" mode="normal"


end timestep


start timestep kper="2" kstp="417" mode="normal"


end timestep


start timestep kper="2" kstp="418" mode="normal"


end timestep


start timestep kper="2" kstp="419" mode="normal"


end timestep


start timestep kper="2" kstp="420" mode="normal"


end timestep


start timestep kper="2" kstp="421" mode="normal"


end timestep


start timestep kper="2" kstp="422" mode="normal"


end timestep


start timestep kper="2" kstp="423" mode="normal"


end timestep


start timestep kper="2" kstp="424" mode="normal"


end timestep


start timestep kper="2" kstp="425" mode="normal"


end timestep


start timestep kper="2" kstp="426" mode="normal"


end timestep


start timestep kper="2" kstp="427" mode="normal"


end timestep


start timestep kper="2" kstp="428" mode="normal"


end timestep


start timestep kper="2" kstp="429" mode="normal"


end timestep


start timestep kper="2" kstp="430" mode="normal"


end timestep


start timestep kper="2" kstp="431" mode="normal"


end timestep


start timestep kper="2" kstp="432" mode="normal"


end timestep


start timestep kper="2" kstp="433" mode="normal"


end timestep


start timestep kper="2" kstp="434" mode="normal"


end timestep


start timestep kper="2" kstp="435" mode="normal"


end timestep


start timestep kper="2" kstp="436" mode="normal"


end timestep


start timestep kper="2" kstp="437" mode="normal"


end timestep


start timestep kper="2" kstp="438" mode="normal"


end timestep


start timestep kper="2" kstp="439" mode="normal"


end timestep


start timestep kper="2" kstp="440" mode="normal"


end timestep


start timestep kper="2" kstp="441" mode="normal"


end timestep


start timestep kper="2" kstp="442" mode="normal"


end timestep


start timestep kper="2" kstp="443" mode="normal"


end timestep


start timestep kper="2" kstp="444" mode="normal"


end timestep


start timestep kper="2" kstp="445" mode="normal"


end timestep


start timestep kper="2" kstp="446" mode="normal"


end timestep


start timestep kper="2" kstp="447" mode="normal"


end timestep


start timestep kper="2" kstp="448" mode="normal"


end timestep


start timestep kper="2" kstp="449" mode="normal"


end timestep


start timestep kper="2" kstp="450" mode="normal"


end timestep


start timestep kper="2" kstp="451" mode="normal"


end timestep


start timestep kper="2" kstp="452" mode="normal"


end timestep


start timestep kper="2" kstp="453" mode="normal"


end timestep


start timestep kper="2" kstp="454" mode="normal"


end timestep


start timestep kper="2" kstp="455" mode="normal"


end timestep


start timestep kper="2" kstp="456" mode="normal"


end timestep


start timestep kper="2" kstp="457" mode="normal"


end timestep


start timestep kper="2" kstp="458" mode="normal"


end timestep


start timestep kper="2" kstp="459" mode="normal"


end timestep


start timestep kper="2" kstp="460" mode="normal"


end timestep


start timestep kper="2" kstp="461" mode="normal"


end timestep


start timestep kper="2" kstp="462" mode="normal"


end timestep


start timestep kper="2" kstp="463" mode="normal"


end timestep


start timestep kper="2" kstp="464" mode="normal"


end timestep


start timestep kper="2" kstp="465" mode="normal"


end timestep


start timestep kper="2" kstp="466" mode="normal"


end timestep


start timestep kper="2" kstp="467" mode="normal"


end timestep


start timestep kper="2" kstp="468" mode="normal"


end timestep


start timestep kper="2" kstp="469" mode="normal"


end timestep


start timestep kper="2" kstp="470" mode="normal"


end timestep


start timestep kper="2" kstp="471" mode="normal"


end timestep


start timestep kper="2" kstp="472" mode="normal"


end timestep


start timestep kper="2" kstp="473" mode="normal"


end timestep


start timestep kper="2" kstp="474" mode="normal"


end timestep


start timestep kper="2" kstp="475" mode="normal"


end timestep


start timestep kper="2" kstp="476" mode="normal"


end timestep


start timestep kper="2" kstp="477" mode="normal"


end timestep


start timestep kper="2" kstp="478" mode="normal"


end timestep


start timestep kper="2" kstp="479" mode="normal"


end timestep


start timestep kper="2" kstp="480" mode="normal"


end timestep


start timestep kper="2" kstp="481" mode="normal"


end timestep


start timestep kper="2" kstp="482" mode="normal"


end timestep


start timestep kper="2" kstp="483" mode="normal"


end timestep


start timestep kper="2" kstp="484" mode="normal"


end timestep


start timestep kper="2" kstp="485" mode="normal"


end timestep


start timestep kper="2" kstp="486" mode="normal"


end timestep


start timestep kper="2" kstp="487" mode="normal"


end timestep


start timestep kper="2" kstp="488" mode="normal"


end timestep


start timestep kper="2" kstp="489" mode="normal"


end timestep


start timestep kper="2" kstp="490" mode="normal"


end timestep


start timestep kper="2" kstp="491" mode="normal"


end timestep


start timestep kper="2" kstp="492" mode="normal"


end timestep


start timestep kper="2" kstp="493" mode="normal"


end timestep


start timestep kper="2" kstp="494" mode="normal"


end timestep


start timestep kper="2" kstp="495" mode="normal"


end timestep


start timestep kper="2" kstp="496" mode="normal"


end timestep


start timestep kper="2" kstp="497" mode="normal"


end timestep


start timestep kper="2" kstp="498" mode="normal"


end timestep


start timestep kper="2" kstp="499" mode="normal"


end timestep


start timestep kper="2" kstp="500" mode="normal"


end timestep


start timestep kper="2" kstp="501" mode="normal"


end timestep


start timestep kper="2" kstp="502" mode="normal"


end timestep


start timestep kper="2" kstp="503" mode="normal"


end timestep


start timestep kper="2" kstp="504" mode="normal"


end timestep


start timestep kper="2" kstp="505" mode="normal"


end timestep


start timestep kper="2" kstp="506" mode="normal"


end timestep


start timestep kper="2" kstp="507" mode="normal"


end timestep


start timestep kper="2" kstp="508" mode="normal"


end timestep


start timestep kper="2" kstp="509" mode="normal"


end timestep


start timestep kper="2" kstp="510" mode="normal"


end timestep


start timestep kper="2" kstp="511" mode="normal"


end timestep


start timestep kper="2" kstp="512" mode="normal"


end timestep


start timestep kper="2" kstp="513" mode="normal"


end timestep


start timestep kper="2" kstp="514" mode="normal"


end timestep


start timestep kper="2" kstp="515" mode="normal"


end timestep


start timestep kper="2" kstp="516" mode="normal"


end timestep


start timestep kper="2" kstp="517" mode="normal"


end timestep


start timestep kper="2" kstp="518" mode="normal"


end timestep


start timestep kper="2" kstp="519" mode="normal"


end timestep


start timestep kper="2" kstp="520" mode="normal"


end timestep


start timestep kper="2" kstp="521" mode="normal"


end timestep


start timestep kper="2" kstp="522" mode="normal"


end timestep


start timestep kper="2" kstp="523" mode="normal"


end timestep


start timestep kper="2" kstp="524" mode="normal"


end timestep


start timestep kper="2" kstp="525" mode="normal"


end timestep


start timestep kper="2" kstp="526" mode="normal"


end timestep


start timestep kper="2" kstp="527" mode="normal"


end timestep


start timestep kper="2" kstp="528" mode="normal"


end timestep


start timestep kper="2" kstp="529" mode="normal"


end timestep


start timestep kper="2" kstp="530" mode="normal"


end timestep


start timestep kper="2" kstp="531" mode="normal"


end timestep


start timestep kper="2" kstp="532" mode="normal"


end timestep


start timestep kper="2" kstp="533" mode="normal"


end timestep


start timestep kper="2" kstp="534" mode="normal"


end timestep


start timestep kper="2" kstp="535" mode="normal"


end timestep


start timestep kper="2" kstp="536" mode="normal"


end timestep


start timestep kper="2" kstp="537" mode="normal"


end timestep


start timestep kper="2" kstp="538" mode="normal"


end timestep


start timestep kper="2" kstp="539" mode="normal"


end timestep


start timestep kper="2" kstp="540" mode="normal"


end timestep


start timestep kper="2" kstp="541" mode="normal"


end timestep


start timestep kper="2" kstp="542" mode="normal"


end timestep


start timestep kper="2" kstp="543" mode="normal"


end timestep


start timestep kper="2" kstp="544" mode="normal"


end timestep


start timestep kper="2" kstp="545" mode="normal"


end timestep


start timestep kper="2" kstp="546" mode="normal"


end timestep


start timestep kper="2" kstp="547" mode="normal"


end timestep


start timestep kper="2" kstp="548" mode="normal"


end timestep


start timestep kper="2" kstp="549" mode="normal"


end timestep


start timestep kper="2" kstp="550" mode="normal"


end timestep


start timestep kper="2" kstp="551" mode="normal"


end timestep


start timestep kper="2" kstp="552" mode="normal"


end timestep


start timestep kper="2" kstp="553" mode="normal"


end timestep


start timestep kper="2" kstp="554" mode="normal"


end timestep


start timestep kper="2" kstp="555" mode="normal"


end timestep


start timestep kper="2" kstp="556" mode="normal"


end timestep


start timestep kper="2" kstp="557" mode="normal"


end timestep


start timestep kper="2" kstp="558" mode="normal"


end timestep


start timestep kper="2" kstp="559" mode="normal"


end timestep


start timestep kper="2" kstp="560" mode="normal"


end timestep


start timestep kper="2" kstp="561" mode="normal"


end timestep


start timestep kper="2" kstp="562" mode="normal"


end timestep


start timestep kper="2" kstp="563" mode="normal"


end timestep


start timestep kper="2" kstp="564" mode="normal"


end timestep


start timestep kper="2" kstp="565" mode="normal"


end timestep


start timestep kper="2" kstp="566" mode="normal"


end timestep


start timestep kper="2" kstp="567" mode="normal"


end timestep


start timestep kper="2" kstp="568" mode="normal"


end timestep


start timestep kper="2" kstp="569" mode="normal"


end timestep


start timestep kper="2" kstp="570" mode="normal"


end timestep


start timestep kper="2" kstp="571" mode="normal"


end timestep


start timestep kper="2" kstp="572" mode="normal"


end timestep


start timestep kper="2" kstp="573" mode="normal"


end timestep


start timestep kper="2" kstp="574" mode="normal"


end timestep


start timestep kper="2" kstp="575" mode="normal"


end timestep


start timestep kper="2" kstp="576" mode="normal"


end timestep


start timestep kper="2" kstp="577" mode="normal"


end timestep


start timestep kper="2" kstp="578" mode="normal"


end timestep


start timestep kper="2" kstp="579" mode="normal"


end timestep


start timestep kper="2" kstp="580" mode="normal"


end timestep


start timestep kper="2" kstp="581" mode="normal"


end timestep


start timestep kper="2" kstp="582" mode="normal"


end timestep


start timestep kper="2" kstp="583" mode="normal"


end timestep


start timestep kper="2" kstp="584" mode="normal"


end timestep


start timestep kper="2" kstp="585" mode="normal"


end timestep


start timestep kper="2" kstp="586" mode="normal"


end timestep


start timestep kper="2" kstp="587" mode="normal"


end timestep


start timestep kper="2" kstp="588" mode="normal"


end timestep


start timestep kper="2" kstp="589" mode="normal"


end timestep


start timestep kper="2" kstp="590" mode="normal"


end timestep


start timestep kper="2" kstp="591" mode="normal"


end timestep


start timestep kper="2" kstp="592" mode="normal"


end timestep


start timestep kper="2" kstp="593" mode="normal"


end timestep


start timestep kper="2" kstp="594" mode="normal"


end timestep


start timestep kper="2" kstp="595" mode="normal"


end timestep


start timestep kper="2" kstp="596" mode="normal"


end timestep


start timestep kper="2" kstp="597" mode="normal"


end timestep


start timestep kper="2" kstp="598" mode="normal"


end timestep


start timestep kper="2" kstp="599" mode="normal"


end timestep


start timestep kper="2" kstp="600" mode="normal"


end timestep


start timestep kper="2" kstp="601" mode="normal"


end timestep


start timestep kper="2" kstp="602" mode="normal"


end timestep


start timestep kper="2" kstp="603" mode="normal"


end timestep


start timestep kper="2" kstp="604" mode="normal"


end timestep


start timestep kper="2" kstp="605" mode="normal"


end timestep


start timestep kper="2" kstp="606" mode="normal"


end timestep


start timestep kper="2" kstp="607" mode="normal"


end timestep


start timestep kper="2" kstp="608" mode="normal"


end timestep


start timestep kper="2" kstp="609" mode="normal"


end timestep


start timestep kper="2" kstp="610" mode="normal"


end timestep


start timestep kper="2" kstp="611" mode="normal"


end timestep


start timestep kper="2" kstp="612" mode="normal"


end timestep


start timestep kper="2" kstp="613" mode="normal"


end timestep


start timestep kper="2" kstp="614" mode="normal"


end timestep


start timestep kper="2" kstp="615" mode="normal"


end timestep


start timestep kper="2" kstp="616" mode="normal"


end timestep


start timestep kper="2" kstp="617" mode="normal"


end timestep


start timestep kper="2" kstp="618" mode="normal"


end timestep


start timestep kper="2" kstp="619" mode="normal"


end timestep


start timestep kper="2" kstp="620" mode="normal"


end timestep


start timestep kper="2" kstp="621" mode="normal"


end timestep


start timestep kper="2" kstp="622" mode="normal"


end timestep


start timestep kper="2" kstp="623" mode="normal"


end timestep


start timestep kper="2" kstp="624" mode="normal"


end timestep


start timestep kper="2" kstp="625" mode="normal"


end timestep


start timestep kper="2" kstp="626" mode="normal"


end timestep


start timestep kper="2" kstp="627" mode="normal"


end timestep


start timestep kper="2" kstp="628" mode="normal"


end timestep


start timestep kper="2" kstp="629" mode="normal"


end timestep


start timestep kper="2" kstp="630" mode="normal"


end timestep


start timestep kper="2" kstp="631" mode="normal"


end timestep


start timestep kper="2" kstp="632" mode="normal"


end timestep


start timestep kper="2" kstp="633" mode="normal"


end timestep


start timestep kper="2" kstp="634" mode="normal"


end timestep


start timestep kper="2" kstp="635" mode="normal"


end timestep


start timestep kper="2" kstp="636" mode="normal"


end timestep


start timestep kper="2" kstp="637" mode="normal"


end timestep


start timestep kper="2" kstp="638" mode="normal"


end timestep


start timestep kper="2" kstp="639" mode="normal"


end timestep


start timestep kper="2" kstp="640" mode="normal"


end timestep


start timestep kper="2" kstp="641" mode="normal"


end timestep


start timestep kper="2" kstp="642" mode="normal"


end timestep


start timestep kper="2" kstp="643" mode="normal"


end timestep


start timestep kper="2" kstp="644" mode="normal"


end timestep


start timestep kper="2" kstp="645" mode="normal"


end timestep


start timestep kper="2" kstp="646" mode="normal"


end timestep


start timestep kper="2" kstp="647" mode="normal"


end timestep


start timestep kper="2" kstp="648" mode="normal"


end timestep


start timestep kper="2" kstp="649" mode="normal"


end timestep


start timestep kper="2" kstp="650" mode="normal"


end timestep


start timestep kper="2" kstp="651" mode="normal"


end timestep


start timestep kper="2" kstp="652" mode="normal"


end timestep


start timestep kper="2" kstp="653" mode="normal"


end timestep


start timestep kper="2" kstp="654" mode="normal"


end timestep


start timestep kper="2" kstp="655" mode="normal"


end timestep


start timestep kper="2" kstp="656" mode="normal"


end timestep


start timestep kper="2" kstp="657" mode="normal"


end timestep


start timestep kper="2" kstp="658" mode="normal"


end timestep


start timestep kper="2" kstp="659" mode="normal"


end timestep


start timestep kper="2" kstp="660" mode="normal"


end timestep


start timestep kper="2" kstp="661" mode="normal"


end timestep


start timestep kper="2" kstp="662" mode="normal"


end timestep


start timestep kper="2" kstp="663" mode="normal"


end timestep


start timestep kper="2" kstp="664" mode="normal"


end timestep


start timestep kper="2" kstp="665" mode="normal"


end timestep


start timestep kper="2" kstp="666" mode="normal"


end timestep


start timestep kper="2" kstp="667" mode="normal"


end timestep


start timestep kper="2" kstp="668" mode="normal"


end timestep


start timestep kper="2" kstp="669" mode="normal"


end timestep


start timestep kper="2" kstp="670" mode="normal"


[...]
          5.00537         4.00430         3.00322         2.00215         1.00107         0.00000    
   9      45.0000         44.0022         43.0044         42.0065         41.0087         40.0109         39.0130         38.0152         37.0173         36.0193    
          35.0213         34.0232         33.0248         32.0262         31.0273         30.0281         29.0284         28.0284         27.0280         26.0275    
          25.0267         24.0258         23.0248         22.0238         21.0228         20.0217         19.0206         18.0195         17.0184         16.0173    
          15.0162         14.0151         13.0140         12.0130         11.0119         10.0108         9.00971         8.00863         7.00755         6.00647    
          5.00539         4.00431         3.00323         2.00216         1.00108         0.00000    
  10      45.0000         44.0022         43.0045         42.0067         41.0090         40.0113         39.0135         38.0158         37.0181         36.0203    
          35.0225         34.0246         33.0265         32.0281         31.0294         30.0302         29.0305         28.0303         27.0297         26.0289    
          25.0279         24.0268         23.0256         22.0245         21.0233         20.0221         19.0209         18.0198         17.0186         16.0175    
          15.0164         14.0153         13.0141         12.0130         11.0119         10.0108         9.00975         8.00866         7.00758         6.00649    
          5.00541         4.00432         3.00324         2.00216         1.00108         0.00000    
  11      45.0000         44.0023         43.0046         42.0069         41.0093         40.0116         39.0140         38.0164         37.0189         36.0213    
          35.0237         34.0261         33.0284         32.0303         31.0319         30.0328         29.0330         28.0325         27.0316         26.0305    
          25.0292         24.0278         23.0265         22.0251         21.0238         20.0225         19.0213         18.0201         17.0189         16.0177    
          15.0165         14.0154         13.0142         12.0131         11.0120         10.0109         9.00979         8.00870         7.00760         6.00651    
          5.00542         4.00434         3.00325         2.00217         1.00108         0.00000    
  12      45.0000         44.0024         43.0047         42.0071         41.0095         40.0120         39.0145         38.0170         37.0197         36.0223    
          35.0251         34.0278         33.0305         32.0330         31.0350         30.0361         29.0361         28.0352         27.0338         26.0322    
          25.0305         24.0289         23.0273         22.0258         21.0243         20.0229         19.0216         18.0203         17.0191         16.0178    
          15.0167         14.0155         13.0143         12.0132         11.0121         10.0109         9.00983         8.00873         7.00763         6.00653    
          5.00544         4.00435         3.00326         2.00217         1.00109         0.00000    
  13      45.0000         44.0024         43.0048         42.0073         41.0098         40.0123         39.0149         38.0176         37.0204         36.0233    
          35.0264         34.0296         33.0329         32.0362         31.0390         30.0406         29.0401         28.0384         27.0362         26.0339    
          25.0318         24.0298         23.0280         22.0263         21.0248         20.0233         19.0219         18.0205         17.0192         16.0180    
          15.0168         14.0156         13.0144         12.0132         11.0121         10.0110         9.00986         8.00875         7.00764         6.00654    
          5.00545         4.00436         3.00326         2.00218         1.00109         0.00000    
  14      45.0000         44.0024         43.0049         42.0074         41.0099         40.0125         39.0152         38.0180         37.0210         36.0241    
          35.0275         34.0312         33.0354         32.0398         31.0442         30.0471         29.0453         28.0420         27.0386         26.0356    
          25.0330         24.0307         23.0286         22.0268         21.0251         20.0235         19.0221         18.0207         17.0194         16.0181    
          15.0168         14.0156         13.0145         12.0133         11.0121         10.0110         9.00988         8.00877         7.00766         6.00656    
          5.00546         4.00436         3.00327         2.00218         1.00109         0.00000    
  15      45.0000         44.0025         43.0050         42.0075         41.0100         40.0127         39.0154         38.0183         37.0214         36.0247    
          35.0283         34.0325         33.0375         32.0435         31.0510         30.0584         29.0521         28.0457         27.0407         26.0369    
          25.0338         24.0312         23.0290         22.0271         21.0253         20.0237         19.0222         18.0208         17.0194         16.0181    
          15.0169         14.0157         13.0145         12.0133         11.0122         10.0110         9.00990         8.00878         7.00767         6.00656    
          5.00546         4.00437         3.00327         2.00218         1.00109         0.00000    
  16      45.0000         44.0025         43.0050         42.0075         41.0101         40.0127         39.0155         38.0184         37.0215         36.0249    
          35.0286         34.0330         33.0384         32.0458         31.0578         30.0834         29.0589         28.0480         27.0417         26.0374    
          25.0341         24.0314         23.0292         22.0272         21.0254         20.0238         19.0222         18.0208         17.0195         16.0182    
          15.0169         14.0157         13.0145         12.0133         11.0122         10.0110         9.00990         8.00878         7.00767         6.00657    
          5.00546         4.00437         3.00327         2.00218         1.00109         0.00000    
  17      45.0000         44.0025         43.0050         42.0075         41.0100         40.0127         39.0154         38.0183         37.0214         36.0247    
          35.0283         34.0325         33.0375         32.0435         31.0510         30.0584         29.0521         28.0457         27.0407         26.0369    
          25.0338         24.0312         23.0290         22.0271         21.0253         20.0237         19.0222         18.0208         17.0194         16.0181    
          15.0169         14.0157         13.0145         12.0133         11.0122         10.0110         9.00990         8.00878         7.00767         6.00656    
          5.00546         4.00437         3.00327         2.00218         1.00109         0.00000    
  18      45.0000         44.0024         43.0049         42.0074         41.0099         40.0125         39.0152         38.0180         37.0210         36.0241    
          35.0275         34.0312         33.0354         32.0398         31.0442         30.0471         29.0453         28.0420         27.0386         26.0356    
          25.0330         24.0307         23.0286         22.0268         21.0251         20.0235         19.0221         18.0207         17.0194         16.0181    
          15.0168         14.0156         13.0145         12.0133         11.0121         10.0110         9.00988         8.00877         7.00766         6.00656    
          5.00546         4.00436         3.00327         2.00218         1.00109         0.00000    
  19      45.0000         44.0024         43.0048         42.0073         41.0098         40.0123         39.0149         38.0176         37.0204         36.0233    
          35.0264         34.0296         33.0329         32.0362         31.0390         30.0406         29.0401         28.0384         27.0362         26.0339    
          25.0318         24.0298         23.0280         22.0263         21.0248         20.0233         19.0219         18.0205         17.0192         16.0180    
          15.0168         14.0156         13.0144         12.0132         11.0121         10.0110         9.00986         8.00875         7.00764         6.00654    
          5.00545         4.00436         3.00326         2.00218         1.00109         0.00000    
  20      45.0000         44.0024         43.0047         42.0071         41.0095         40.0120         39.0145         38.0170         37.0197         36.0223    
          35.0251         34.0278         33.0305         32.0330         31.0350         30.0361         29.0361         28.0352         27.0338         26.0322    
          25.0305         24.0289         23.0273         22.0258         21.0243         20.0229         19.0216         18.0203         17.0191         16.0178    
          15.0167         14.0155         13.0143         12.0132         11.0121         10.0109         9.00983         8.00873         7.00763         6.00653    
          5.00544         4.00435         3.00326         2.00217         1.00109         0.00000    
  21      45.0000         44.0023         43.0046         42.0069         41.0093         40.0116         39.0140         38.0164         37.0189         36.0213    
          35.0237         34.0261         33.0284         32.0303         31.0319         30.0328         29.0330         28.0325         27.0316         26.0305    
          25.0292         24.0278         23.0265         22.0251         21.0238         20.0225         19.0213         18.0201         17.0189         16.0177    
          15.0165         14.0154         13.0142         12.0131         11.0120         10.0109         9.00979         8.00870         7.00760         6.00651    
          5.00542         4.00434         3.00325         2.00217         1.00108         0.00000    
  22      45.0000         44.0022         43.0045         42.0067         41.0090         40.0113         39.0135         38.0158         37.0181         36.0203    
          35.0225         34.0246         33.0265         32.0281         31.0294         30.0302         29.0305         28.0303         27.0297         26.0289    
          25.0279         24.0268         23.0256         22.0245         21.0233         20.0221         19.0209         18.0198         17.0186         16.0175    
          15.0164         14.0153         13.0141         12.0130         11.0119         10.0108         9.00975         8.00866         7.00758         6.00649    
          5.00541         4.00432         3.00324         2.00216         1.00108         0.00000    
  23      45.0000         44.0022         43.0044         42.0065         41.0087         40.0109         39.0130         38.0152         37.0173         36.0193    
          35.0213         34.0232         33.0248         32.0262         31.0273         30.0281         29.0284         28.0284         27.0280         26.0275    
          25.0267         24.0258         23.0248         22.0238         21.0228         20.0217         19.0206         18.0195         17.0184         16.0173    
          15.0162         14.0151         13.0140         12.0130         11.0119         10.0108         9.00971         8.00863         7.00755         6.00647    
          5.00539         4.00431         3.00323         2.00216         1.00108         0.00000    
  24      45.0000         44.0021         43.0042         42.0063         41.0084         40.0105         39.0126         38.0146         37.0166         36.0185    
          35.0203         34.0219         33.0234         32.0247         31.0257         30.0264         29.0268         28.0268         27.0266         26.0262    
          25.0256         24.0249         23.0241         22.0232         21.0222         20.0213         19.0202         18.0192         17.0182         16.0171    
          15.0161         14.0150         13.0139         12.0129         11.0118         10.0107         9.00966         8.00859         7.00752         6.00645    
          5.00537         4.00430         3.00322         2.00215         1.00107         0.00000    
  25      45.0000         44.0021         43.0041         42.0062         41.0082         40.0102         39.0121         38.0141         37.0159         36.0177    
          35.0194         34.0209         33.0222         32.0234         31.0243         30.0250         29.0254         28.0255         27.0255         26.0252    
          25.0247         24.0241         23.0234         22.0226         21.0218         20.0209         19.0199         18.0190         17.0180         16.0169    
          15.0159         14.0149         13.0138         12.0128         11.0117         10.0107         9.00962         8.00856         7.00749         6.00642    
          5.00535         4.00428         3.00321         2.00214         1.00107         0.00000    
  26      45.0000         44.0020         43.0040         42.0060         41.0079         40.0099         39.0118         38.0136         37.0154         36.0170    
          35.0186         34.0200         33.0213         32.0224         31.0232         30.0239         29.0243         28.0245         27.0245         26.0243    
          25.0239         24.0234         23.0228         22.0221         21.0213         20.0205         19.0196         18.0187         17.0178         16.0168    
          15.0158         14.0148         13.0137         12.0127         11.0117         10.0106         9.00958         8.00852         7.00746         6.00640    
          5.00534         4.00427         3.00320         2.00214         1.00107         0.00000    
  27      45.0000         44.0020         43.0039         42.0058         41.0077         40.0096         39.0114         38.0132         37.0149         36.0165    
          35.0180         34.0193         33.0205         32.0215         31.0223         30.0230         29.0234         28.0236         27.0237         26.0236    
          25.0233         24.0229         23.0223         22.0217         21.0210         20.0202         19.0194         18.0185         17.0176         16.0166    
          15.0157         14.0147         13.0137         12.0126         11.0116         10.0106         9.00954         8.00849         7.00744         6.00638    
          5.00532         4.00426         3.00320         2.00213         1.00107         0.00000    
  28      45.0000         44.0019         43.0038         42.0057         41.0076         40.0094         39.0112         38.0129         37.0145         36.0160    
          35.0174         34.0187         33.0199         32.0209         31.0217         30.0223         29.0227         28.0230         27.0231         26.0230    
          25.0228         24.0224         23.0219         22.0213         21.0207         20.0199         19.0191         18.0183         17.0174         16.0165    
          15.0156         14.0146         13.0136         12.0126         11.0116         10.0105         9.00951         8.00847         7.00742         6.00637    
          5.00531         4.00425         3.00319         2.00213         1.00106         0.00000    
  29      45.0000         44.0019         43.0038         42.0056         41.0074         40.0092         39.0110         38.0126         37.0142         36.0157    
          35.0171         34.0183         33.0194         32.0204         31.0212         30.0218         29.0222         28.0225         27.0226         26.0226    
          25.0224         24.0220         23.0216         22.0211         21.0204         20.0197         19.0190         18.0182         17.0173         16.0164    
          15.0155         14.0145         13.0135         12.0125         11.0115         10.0105         9.00948         8.00845         7.00740         6.00635    
          5.00530         4.00424         3.00318         2.00212         1.00106         0.00000    
  30      45.0000         44.0019         43.0037         42.0056         41.0074         40.0091         39.0108         38.0125         37.0140         36.0155    
          35.0168         34.0180         33.0191         32.0201         31.0208         30.0215         29.0219         28.0222         27.0223         26.0223    
          25.0221         24.0218         23.0214         22.0209         21.0203         20.0196         19.0189         18.0181         17.0172         16.0163    
          15.0154         14.0145         13.0135         12.0125         11.0115         10.0105         9.00947         8.00843         7.00739         6.00634    
          5.00529         4.00424         3.00318         2.00212         1.00106         0.00000    
  31      45.0000         44.0019         43.0037         42.0055         41.0073         40.0091         39.0108         38.0124         37.0139         36.0154    
          35.0167         34.0179         33.0190         32.0199         31.0207         30.0213         29.0217         28.0220         27.0222         26.0221    
          25.0220         24.0217         23.0213         22.0208         21.0202         20.0195         19.0188         18.0180         17.0172         16.0163    
          15.0154         14.0144         13.0135         12.0125         11.0115         10.0105         9.00946         8.00843         7.00739         6.00634    
          5.00529         4.00424         3.00318         2.00212         1.00106         0.00000    

 HEAD WILL BE SAVED ON UNIT 1027 AT END OF TIME STEP  730, STRESS PERIOD    2


  VOLUME BUDGET FOR ENTIRE MODEL AT END OF TIME STEP  730, STRESS PERIOD   2
  ---------------------------------------------------------------------------------------------------

     CUMULATIVE VOLUME      L**3       RATES FOR THIS TIME STEP      L**3/T          PACKAGE NAME    
     ------------------                 ------------------------                     ----------------

           IN:                                      IN:
           ---                                      ---
              STO-SS =           0.0000                STO-SS =           0.0000     STORAGE                          
                 WEL =         366.0000                   WEL =           1.0000     WEL-1                            
                 CHD =      113216.0000                   CHD =         309.3333     CHD-1                            

            TOTAL IN =      113582.0000              TOTAL IN =         310.3333

          OUT:                                     OUT:
          ----                                     ----
              STO-SS =           0.0000                STO-SS =           0.0000     STORAGE                          
                 WEL =           0.0000                   WEL =           0.0000     WEL-1                            
                 CHD =      113582.0000                   CHD =         310.3333     CHD-1                            

           TOTAL OUT =      113582.0000             TOTAL OUT =         310.3333

            IN - OUT =       1.1572E-06              IN - OUT =       1.8343E-10

 PERCENT DISCREPANCY =           0.00     PERCENT DISCREPANCY =           0.00




         TIME SUMMARY AT END OF TIME STEP  730 IN STRESS PERIOD    2
                    SECONDS     MINUTES      HOURS       DAYS        YEARS
                    -----------------------------------------------------------
   TIME STEP LENGTH  43200.      720.00      12.000     0.50000     1.36893E-03
 STRESS PERIOD TIME 3.15360E+07 5.25600E+05  8760.0      365.00     0.99932    
         TOTAL TIME 3.16224E+07 5.27040E+05  8784.0      366.00      1.0021    


end timestep

