                                   MODFLOW 6
                U.S. GEOLOGICAL SURVEY MODULAR HYDROLOGIC MODEL
                          GROUNDWATER FLOW MODEL (GWF)
                            VERSION 6.6.1 02/10/2025

   MODFLOW 6 compiled Feb 14 2025 13:40:10 with Intel(R) Fortran Intel(R) 64
   Compiler Classic for applications running on Intel(R) 64, Version 2021.7.0
                             Build 20220726_000000

This software has been approved for release by the U.S. Geological 
Survey (USGS). Although the software has been subjected to rigorous 
review, the USGS reserves the right to update the software as needed 
pursuant to further analysis and review. No warranty, expressed or 
implied, is made by the USGS or the U.S. Government as to the 
functionality of the software and related material nor shall the 
fact of release constitute any such warranty. Furthermore, the 
software is released on condition that neither the USGS nor the U.S. 
Government shall be held liable for any damages resulting from its 
authorized or unauthorized use. Also refer to the USGS Water 
Resources Software User Rights Notice for complete use, copyright, 
and distribution information.


As a work of the United States Government, this USGS product is 
in the public domain within the United States. You can copy, 
modify, distribute, and perform the work, even for commercial 
purposes, all without asking permission. Additionally, USGS 
waives copyright and related rights in the work worldwide 
through CC0 1.0 Universal Public Domain Dedication 
(https://creativecommons.org/publicdomain/zero/1.0/).

The following GNU Lesser General Public License (LGPL) libraries
are used in this USGS product:

    SPARSKIT version 2.0
      ilut, luson, and qsplit 
      (https://www-users.cse.umn.edu/~saad/software/SPARSKIT/)

    RCM - Reverse Cuthill McKee Ordering
      (https://people.math.sc.edu/Burkardt/f_src/rcm/rcm.html)

    BLAS - Basic Linear Algebra Subprograms Level 1
      (https://people.math.sc.edu/Burkardt/f_src/blas1_d/blas1_d.html)

    SPARSEKIT - Sparse Matrix Utility Package
      amux, dperm, dvperm, rperm, and cperm
      (https://people.sc.fsu.edu/~jburkardt/f77_src/sparsekit/sparsekit.html)

The following BSD-3 License libraries are used in this USGS product:

    Modern Fortran DAG Library
      Copyright (c) 2018, Jacob Williams
      All rights reserved.
      (https://github.com/jacobwilliams/daglib)

MODFLOW 6 compiler options: /O2 /heap-arrays:0 /fpe:0 /traceback /nologo /fpp
/c /module:win64\mod_mf6\ /object:win64\obj_mf6\

System command used to initiate simulation:
C:\Users\gross.DESKTOP-AIRQM2M\anaconda3\Scripts\mf6.exe

MODFLOW was compiled using uniform precision.

Real Variables
  KIND: 8
  TINY (smallest non-zero value):    2.225074-308
  HUGE (largest value):    1.797693+308
  PRECISION: 15
  SIZE IN BITS: 64

Integer Variables
  KIND: 4
  HUGE (largest value): 2147483647
  SIZE IN BITS: 32

Long Integer Variables
  KIND: 8
  HUGE (largest value): 9223372036854775807
  SIZE IN BITS: 64

Logical Variables
  KIND: 4
  SIZE IN BITS: 32
 
 NAMEFILE OPTIONS:
    FLOWS WILL BE SAVED TO BUDGET FILE SPECIFIED IN OUTPUT CONTROL
 END NAMEFILE OPTIONS:

 DIS -- STRUCTURED GRID DISCRETIZATION PACKAGE, VERSION 2 : 3/27/2014 - INPUT READ FROM MEMPATH: __INPUT__/EX-GWF-MAW-P03/DIS                      


 NPF -- NODE PROPERTY FLOW PACKAGE, VERSION 1, 3/30/2015 INPUT READ FROM MEMPATH: __INPUT__/EX-GWF-MAW-P03/NPF                      


 IC -- Initial Conditions Package, Version 8, 3/28/2015 input read from mempath: __INPUT__/EX-GWF-MAW-P03/IC                       


 Setting Discretization Options
    Model length unit [0=UND, 1=FEET, 2=METERS, 3=CENTIMETERS] set as 1
 End Setting Discretization Options

 Setting Discretization Dimensions
    NLAY = 41
    NROW = 16
    NCOL = 27
 End Setting Discretization Dimensions

 Setting Discretization Griddata
    DELR set from input file
    DELC set from input file
    TOP set from input file
    BOTM set from input file
    IDOMAIN set from input file
 End Setting Discretization Griddata


 The specified IDOMAIN results in a reduced number of cells.
 Number of user nodes: 17712
 Number of nodes in solution: 17700


 Setting NPF Options
    Specific discharge will be calculated at cell centers and written to DATA-SPDIS in budget file when requested.
 End Setting NPF Options

 Setting NPF Griddata
    ICELLTYPE set from input file
    K set from input file
    K33 set from input file
    K22 not provided.  Setting K22 = K.
 End Setting NPF Griddata


 RCH   -- RCH PACKAGE, VERSION 8, 2/22/2014 INPUT READ FROM MEMPATH: __INPUT__/EX-GWF-MAW-P03/RCHA_0                   

 PROCESSING RCH BASE OPTIONS
 END OF RCH BASE OPTIONS

 PROCESSING RCHA OPTIONS
    RECHARGE INPUT WILL BE READ AS ARRAY(S).
 END OF RCHA OPTIONS

 CHD   -- CHD PACKAGE, VERSION 8, 2/22/2014 INPUT READ FROM MEMPATH: __INPUT__/EX-GWF-MAW-P03/CHD_0                    

 PROCESSING CHD BASE OPTIONS
 END OF CHD BASE OPTIONS

 PROCESSING CHD BASE DIMENSIONS
    MAXBOUND =    1312
 END OF CHD BASE DIMENSIONS

 MAW   -- MAW PACKAGE, VERSION 8, 2/22/2014 INPUT READ FROM UNIT 1010
 # File generated by Flopy version 3.9.1 on 05/06/2025 at 14:50:32.

 PROCESSING MAW OPTIONS
    WELL STORAGE WILL NOT BE SIMULATED.

 OPENED ex-gwf-maw-p03.maw.obs
 FILE TYPE:OBS   UNIT 1013   STATUS:OLD                 
 FORMAT:FORMATTED              ACCESS:SEQUENTIAL          
 ACTION:READ                

 END OF MAW OPTIONS

 PROCESSING MAW DIMENSIONS
    NMAWWELLS = 1
 END OF MAW DIMENSIONS

 PROCESSING MAW PACKAGEDATA
 END OF MAW PACKAGEDATA


    MAXBOUND =      38

 PROCESSING MAW CONNECTIONDATA
 END OF MAW CONNECTIONDATA
    STRT set from input file
    BINARY GRID INFORMATION WILL BE WRITTEN TO:
      UNIT NUMBER: 1014
      FILE NAME: ex-gwf-maw-p03.dis.grb

 OPENED ex-gwf-maw-p03.dis.grb
 FILE TYPE:DATA(BINARY)   UNIT 1014   STATUS:REPLACE             
 FORMAT:UNFORMATTED            ACCESS:STREAM              
 ACTION:READWRITE           

      THE LAST TIME STEP WILL BE PRINTED
      THE LAST TIME STEP WILL BE PRINTED

The observation utility is active for "MAW_0"
 # File generated by Flopy version 3.9.1 on 05/06/2025 at 14:50:32.

Processing observation options:

Text output number of digits of precision set to: 10
The PRINT_INPUT option has been specified.


 OBSERVATIONS READ FROM FILE "ex-gwf-maw-p03.maw.obs"
 ----------------------------------------------------------------------------------------------------------------------------------------------------------------------------------------------------------------------------
 NAME                                     TYPE                                       TIME         LOCATION DATA                              OUTPUT FILENAME                                                                 
 ----------------------------------------------------------------------------------------------------------------------------------------------------------------------------------------------------------------------------
 H0                                       CONTINUOUS  HEAD                           ALL TIMES    "  1"                                      ex-gwf-maw-p03.maw.obs.csv                                                      
 Q00                                      CONTINUOUS  MAW                            ALL TIMES    "  1  1"                                   ex-gwf-maw-p03.maw.obs.csv                                                      
 Q01                                      CONTINUOUS  MAW                            ALL TIMES    "  1  2"                                   ex-gwf-maw-p03.maw.obs.csv                                                      
 Q02                                      CONTINUOUS  MAW                            ALL TIMES    "  1  3"                                   ex-gwf-maw-p03.maw.obs.csv                                                      
 Q03                                      CONTINUOUS  MAW                            ALL TIMES    "  1  4"                                   ex-gwf-maw-p03.maw.obs.csv                                                      
 Q04                                      CONTINUOUS  MAW                            ALL TIMES    "  1  5"                                   ex-gwf-maw-p03.maw.obs.csv                                                      
 Q05                                      CONTINUOUS  MAW                            ALL TIMES    "  1  6"                                   ex-gwf-maw-p03.maw.obs.csv                                                      
 Q06                                      CONTINUOUS  MAW                            ALL TIMES    "  1  7"                                   ex-gwf-maw-p03.maw.obs.csv                                                      
 Q07                                      CONTINUOUS  MAW                            ALL TIMES    "  1  8"                                   ex-gwf-maw-p03.maw.obs.csv                                                      
 Q08                                      CONTINUOUS  MAW                            ALL TIMES    "  1  9"                                   ex-gwf-maw-p03.maw.obs.csv                                                      
 Q09                                      CONTINUOUS  MAW                            ALL TIMES    "  1  10"                                  ex-gwf-maw-p03.maw.obs.csv                                                      
 Q10                                      CONTINUOUS  MAW                            ALL TIMES    "  1  11"                                  ex-gwf-maw-p03.maw.obs.csv                                                      
 Q11                                      CONTINUOUS  MAW                            ALL TIMES    "  1  12"                                  ex-gwf-maw-p03.maw.obs.csv                                                      
 Q12                                      CONTINUOUS  MAW                            ALL TIMES    "  1  13"                                  ex-gwf-maw-p03.maw.obs.csv                                                      
 Q13                                      CONTINUOUS  MAW                            ALL TIMES    "  1  14"                                  ex-gwf-maw-p03.maw.obs.csv                                                      
 Q14                                      CONTINUOUS  MAW                            ALL TIMES    "  1  15"                                  ex-gwf-maw-p03.maw.obs.csv                                                      
 Q15                                      CONTINUOUS  MAW                            ALL TIMES    "  1  16"                                  ex-gwf-maw-p03.maw.obs.csv                                                      
 Q16                                      CONTINUOUS  MAW                            ALL TIMES    "  1  17"                                  ex-gwf-maw-p03.maw.obs.csv                                                      
 Q17                                      CONTINUOUS  MAW                            ALL TIMES    "  1  18"                                  ex-gwf-maw-p03.maw.obs.csv                                                      
 Q18                                      CONTINUOUS  MAW                            ALL TIMES    "  1  19"                                  ex-gwf-maw-p03.maw.obs.csv                                                      
 Q19                                      CONTINUOUS  MAW                            ALL TIMES    "  1  20"                                  ex-gwf-maw-p03.maw.obs.csv                                                      
 Q20                                      CONTINUOUS  MAW                            ALL TIMES    "  1  21"                                  ex-gwf-maw-p03.maw.obs.csv                                                      
 Q21                                      CONTINUOUS  MAW                            ALL TIMES    "  1  22"                                  ex-gwf-maw-p03.maw.obs.csv                                                      
 Q22                                      CONTINUOUS  MAW                            ALL TIMES    "  1  23"                                  ex-gwf-maw-p03.maw.obs.csv                                                      
 Q23                                      CONTINUOUS  MAW                            ALL TIMES    "  1  24"                                  ex-gwf-maw-p03.maw.obs.csv                                                      
 Q24                                      CONTINUOUS  MAW                            ALL TIMES    "  1  25"                                  ex-gwf-maw-p03.maw.obs.csv                                                      
 Q25                                      CONTINUOUS  MAW                            ALL TIMES    "  1  26"                                  ex-gwf-maw-p03.maw.obs.csv                                                      
 Q26                                      CONTINUOUS  MAW                            ALL TIMES    "  1  27"                                  ex-gwf-maw-p03.maw.obs.csv                                                      
 Q27                                      CONTINUOUS  MAW                            ALL TIMES    "  1  28"                                  ex-gwf-maw-p03.maw.obs.csv                                                      
 Q28                                      CONTINUOUS  MAW                            ALL TIMES    "  1  29"                                  ex-gwf-maw-p03.maw.obs.csv                                                      
 Q29                                      CONTINUOUS  MAW                            ALL TIMES    "  1  30"                                  ex-gwf-maw-p03.maw.obs.csv                                                      
 Q30                                      CONTINUOUS  MAW                            ALL TIMES    "  1  31"                                  ex-gwf-maw-p03.maw.obs.csv                                                      
 Q31                                      CONTINUOUS  MAW                            ALL TIMES    "  1  32"                                  ex-gwf-maw-p03.maw.obs.csv                                                      
 Q32                                      CONTINUOUS  MAW                            ALL TIMES    "  1  33"                                  ex-gwf-maw-p03.maw.obs.csv                                                      
 Q33                                      CONTINUOUS  MAW                            ALL TIMES    "  1  34"                                  ex-gwf-maw-p03.maw.obs.csv                                                      
 Q34                                      CONTINUOUS  MAW                            ALL TIMES    "  1  35"                                  ex-gwf-maw-p03.maw.obs.csv                                                      
 Q35                                      CONTINUOUS  MAW                            ALL TIMES    "  1  36"                                  ex-gwf-maw-p03.maw.obs.csv                                                      
 Q36                                      CONTINUOUS  MAW                            ALL TIMES    "  1  37"                                  ex-gwf-maw-p03.maw.obs.csv                                                      
 Q37                                      CONTINUOUS  MAW                            ALL TIMES    "  1  38"                                  ex-gwf-maw-p03.maw.obs.csv                                                      
 ----------------------------------------------------------------------------------------------------------------------------------------------------------------------------------------------------------------------------



start timestep kper="1" kstp="1" mode="normal"


 REUSING MAWS FROM LAST STRESS PERIOD
1
  HEAD IN LAYER   1 AT END OF TIME STEP   1 IN STRESS PERIOD    1
  ---------------------------------------------------------------------------

            1           2           3           4           5           6           7           8           9          10
           11          12          13          14          15          16          17          18          19          20
           21          22          23          24          25          26          27
 ....................................................................................................................................................................................................................................................................................................................................
   1    4.936       4.934       4.933       4.932       4.931       4.930       4.930       4.930       4.929       4.929    
        4.929       4.929       4.929       4.929       4.929       4.929       4.928       4.928       4.928       4.928    
        4.928       4.927       4.927       4.926       4.925       4.923       4.922    
   2    4.936       4.934       4.933       4.932       4.931       4.930       4.930       4.930       4.929       4.929    
        4.929       4.929       4.929       4.929       4.929       4.929       4.928       4.928       4.928       4.928    
        4.928       4.927       4.927       4.926       4.925       4.923       4.922    
   3    4.936       4.934       4.933       4.931       4.931       4.930       4.930       4.930       4.929       4.929    
        4.929       4.929       4.929       4.929       4.929       4.929       4.928       4.928       4.928       4.928    
        4.928       4.927       4.927       4.926       4.925       4.923       4.922    
   4    4.936       4.934       4.933       4.931       4.931       4.930       4.930       4.930       4.929       4.929    
        4.929       4.929       4.929       4.929       4.929       4.929       4.928       4.928       4.928       4.928    
        4.928       4.927       4.927       4.926       4.925       4.923       4.922    
   5    4.936       4.934       4.933       4.931       4.931       4.930       4.930       4.930       4.929       4.929    
        4.929       4.929       4.929       4.929       4.929       4.929       4.928       4.928       4.928       4.928    
        4.928       4.927       4.927       4.926       4.925       4.923       4.922    
   6    4.936       4.934       4.933       4.931       4.931       4.930       4.930       4.930       4.929       4.929    
        4.929       4.929       4.929       4.929       4.929       4.929       4.928       4.928       4.928       4.928    
        4.928       4.927       4.927       4.926       4.925       4.923       4.922    
   7    4.936       4.934       4.933       4.931       4.931       4.930       4.930       4.929       4.929       4.929    
        4.929       4.929       4.929       4.929       4.929       4.929       4.928       4.928       4.928       4.928    
        4.928       4.927       4.927       4.926       4.925       4.923       4.922    
   8    4.936       4.934       4.933       4.931       4.931       4.930       4.930       4.929       4.929       4.929    
        4.929       4.929       4.929       4.929       4.929       4.929       4.928       4.928       4.928       4.928    
        4.928       4.927       4.927       4.926       4.925       4.923       4.922    
   9    4.936       4.934       4.933       4.931       4.931       4.930       4.930       4.929       4.929       4.929    
        4.929       4.929       4.929       4.929       4.929       4.929       4.928       4.928       4.928       4.928    
        4.928       4.927       4.927       4.926       4.925       4.923       4.922    
  10    4.936       4.934       4.933       4.931       4.931       4.930       4.930       4.929       4.929       4.929    
        4.929       4.929       4.929       4.929       4.929       4.929       4.928       4.928       4.928       4.928    
        4.928       4.927       4.927       4.926       4.925       4.923       4.922    
  11    4.936       4.934       4.933       4.931       4.931       4.930       4.930       4.929       4.929       4.929    
        4.929       4.929       4.929       4.929       4.929       4.929       4.928       4.928       4.928       4.928    
        4.928       4.927       4.927       4.926       4.925       4.923       4.922    
  12    4.936       4.934       4.933       4.931       4.931       4.930       4.930       4.929       4.929       4.929    
        4.929       4.929       4.929       4.929       4.929       4.929       4.928       4.928       4.928       4.928    
        4.928       4.927       4.927       4.926       4.925       4.923       4.922    
  13    4.936       4.934       4.933       4.931       4.931       4.930       4.930       4.929       4.929       4.929    
        4.929       4.929       4.929       4.929       4.929       4.929       4.928       4.928       4.928       4.928    
        4.928       4.927       4.927       4.926       4.925       4.923       4.922    
  14    4.936       4.934       4.933       4.931       4.931       4.930       4.930       4.929       4.929       4.929    
        4.929       4.929       4.929       4.929       4.929       4.929       4.928       4.928       4.928       4.928    
        4.928       4.927       4.927       4.926       4.925       4.923       4.922    
  15    4.936       4.934       4.933       4.931       4.931       4.930       4.930       4.929       4.929       4.929    
        4.929       4.929       4.929       4.929       4.929       4.929       4.928       4.928       4.928       4.928    
        4.928       4.927       4.927       4.926       4.925       4.923       4.922    
  16    4.936       4.934       4.933       4.931       4.931       4.930       4.930       4.929       4.929       4.929    
        4.929       4.929       4.929       4.929       4.929       4.929       4.928       4.928       4.928       4.928    
        4.928       4.927       4.927       4.926       4.925       4.923       4.922    
1
  HEAD IN LAYER   2 AT END OF TIME STEP   1 IN STRESS PERIOD    1
  ---------------------------------------------------------------------------

            1           2           3           4           5           6           7           8           9          10
           11          12          13          14          15          16          17          18          19          20
           21          22          23          24          25          26          27
 ....................................................................................................................................................................................................................................................................................................................................
   1    4.935       4.933       4.932       4.931       4.930       4.929       4.929       4.929       4.929       4.928    
        4.928       4.928       4.928       4.928       4.928       4.928       4.928       4.927       4.927       4.927    
        4.927       4.926       4.926       4.925       4.924       4.923       4.921    
   2    4.935       4.933       4.932       4.931       4.930       4.929       4.929       4.929       4.928       4.928    
        4.928       4.928       4.928       4.928       4.928       4.928       4.928       4.927       4.927       4.927    
        4.927       4.926       4.926       4.925       4.924       4.923       4.921    
   3    4.935       4.933       4.932       4.931       4.930       4.929       4.929       4.929       4.928       4.928    
        4.928       4.928       4.928       4.928       4.928       4.928       4.928       4.927       4.927       4.927    
        4.927       4.926       4.926       4.925       4.924       4.923       4.921    
   4    4.935       4.933       4.932       4.931       4.930       4.929       4.929       4.929       4.928       4.928    
        4.928       4.928       4.928       4.928       4.928       4.928       4.927       4.927       4.927       4.927    
        4.927       4.926       4.926       4.925       4.924       4.923       4.921    
   5    4.935       4.933       4.932       4.931       4.930       4.929       4.929       4.929       4.928       4.928    
        4.928       4.928       4.928       4.928       4.928       4.928       4.927       4.927       4.927       4.927    
        4.927       4.926       4.926       4.925       4.924       4.922       4.921    
   6    4.935       4.933       4.932       4.931       4.930       4.929       4.929       4.928       4.928       4.928    
        4.928       4.928       4.928       4.928       4.928       4.927       4.927       4.927       4.927       4.927    
        4.927       4.926       4.926       4.925       4.924       4.922       4.921    
   7    4.935       4.933       4.932       4.930       4.930       4.929       4.929       4.928       4.928       4.928    
        4.928       4.928       4.928       4.927       4.927       4.927       4.927       4.927       4.927       4.927    
        4.927       4.926       4.926       4.925       4.924       4.922       4.921    
   8    4.935       4.933       4.932       4.930       4.930       4.929       4.929       4.928       4.928       4.928    
        4.928       4.928       4.927       4.927       4.927       4.927       4.927       4.927       4.927       4.927    
        4.926       4.926       4.926       4.925       4.924       4.922       4.921    
   9    4.935       4.933       4.932       4.930       4.930       4.929       4.929       4.928       4.928       4.928    
        4.928       4.927       4.927       4.927       4.927       4.927       4.927       4.927       4.927       4.927    
        4.926       4.926       4.926       4.925       4.924       4.922       4.921    
  10    4.935       4.933       4.932       4.930       4.930       4.929       4.929       4.928       4.928       4.928    
        4.928       4.927       4.927       4.927       4.927       4.927       4.927       4.927       4.927       4.927    
        4.926       4.926       4.926       4.925       4.924       4.922       4.921    
  11    4.935       4.933       4.932       4.930       4.930       4.929       4.929       4.928       4.928       4.928    
        4.927       4.927       4.927       4.927       4.927       4.927       4.927       4.927       4.927       4.927    
        4.926       4.926       4.926       4.925       4.924       4.922       4.921    
  12    4.935       4.933       4.932       4.930       4.930       4.929       4.929       4.928       4.928       4.928    
        4.927       4.927       4.927       4.927       4.927       4.927       4.927       4.927       4.927       4.927    
        4.926       4.926       4.926       4.925       4.924       4.922       4.921    
  13    4.935       4.933       4.932       4.930       4.930       4.929       4.929       4.928       4.928       4.928    
        4.927       4.927       4.927       4.927       4.927       4.927       4.927       4.927       4.927       4.927    
        4.926       4.926       4.926       4.925       4.924       4.922       4.921    
  14    4.935       4.933       4.932       4.930       4.930       4.929       4.929       4.928       4.928       4.928    
        4.927       4.927       4.927       4.926       4.926       4.927       4.927       4.927       4.927       4.927    
        4.926       4.926       4.926       4.925       4.924       4.922       4.921    
  15    4.935       4.933       4.932       4.930       4.930       4.929       4.929       4.928       4.928       4.928    
        4.927       4.927       4.926       4.926       4.926       4.927       4.927       4.927       4.927       4.927    
        4.926       4.926       4.926       4.925       4.924       4.922       4.921    
  16    4.935       4.933       4.932       4.930       4.930       4.929       4.929       4.928       4.928       4.928    
        4.927       4.927       4.926      1.0000E+30   4.926       4.927       4.927       4.927       4.927       4.927    
        4.926       4.926       4.926       4.925       4.924       4.922       4.921    
1
  HEAD IN LAYER   3 AT END OF TIME STEP   1 IN STRESS PERIOD    1
  ---------------------------------------------------------------------------

            1           2           3           4           5           6           7           8           9          10
           11          12          13          14          15          16          17          18          19          20
           21          22          23          24          25          26          27
 ....................................................................................................................................................................................................................................................................................................................................
   1    4.935       4.933       4.931       4.930       4.929       4.929       4.929       4.928       4.928       4.928    
        4.928       4.928       4.928       4.927       4.927       4.927       4.927       4.927       4.927       4.927    
        4.926       4.926       4.925       4.925       4.924       4.922       4.921    
   2    4.935       4.933       4.931       4.930       4.929       4.929       4.929       4.928       4.928       4.928    
        4.928       4.928       4.928       4.927       4.927       4.927       4.927       4.927       4.927       4.927    
        4.926       4.926       4.925       4.925       4.924       4.922       4.921    
   3    4.935       4.933       4.931       4.930       4.929       4.929       4.928       4.928       4.928       4.928    
        4.928       4.928       4.927       4.927       4.927       4.927       4.927       4.927       4.927       4.927    
        4.926       4.926       4.925       4.925       4.924       4.922       4.921    
   4    4.935       4.933       4.931       4.930       4.929       4.929       4.928       4.928       4.928       4.928    
        4.928       4.927       4.927       4.927       4.927       4.927       4.927       4.927       4.927       4.927    
        4.926       4.926       4.925       4.925       4.924       4.922       4.921    
   5    4.935       4.933       4.931       4.930       4.929       4.929       4.928       4.928       4.928       4.928    
        4.928       4.927       4.927       4.927       4.927       4.927       4.927       4.927       4.927       4.926    
        4.926       4.926       4.925       4.925       4.924       4.922       4.921    
   6    4.935       4.933       4.931       4.930       4.929       4.929       4.928       4.928       4.928       4.928    
        4.927       4.927       4.927       4.927       4.927       4.927       4.927       4.927       4.927       4.926    
        4.926       4.926       4.925       4.925       4.924       4.922       4.921    
   7    4.935       4.933       4.931       4.930       4.929       4.929       4.928       4.928       4.928       4.928    
        4.927       4.927       4.927       4.927       4.927       4.927       4.927       4.927       4.927       4.926    
        4.926       4.926       4.925       4.925       4.924       4.922       4.921    
   8    4.935       4.933       4.931       4.930       4.929       4.929       4.928       4.928       4.928       4.927    
        4.927       4.927       4.927       4.927       4.927       4.927       4.927       4.927       4.926       4.926    
        4.926       4.926       4.925       4.925       4.924       4.922       4.921    
   9    4.935       4.933       4.931       4.930       4.929       4.929       4.928       4.928       4.928       4.927    
        4.927       4.927       4.927       4.927       4.927       4.927       4.927       4.927       4.926       4.926    
        4.926       4.926       4.925       4.925       4.924       4.922       4.921    
  10    4.935       4.933       4.931       4.930       4.929       4.929       4.928       4.928       4.928       4.927    
        4.927       4.927       4.927       4.927       4.927       4.927       4.927       4.926       4.926       4.926    
        4.926       4.926       4.925       4.925       4.924       4.922       4.921    
  11    4.935       4.933       4.931       4.930       4.929       4.929       4.928       4.928       4.928       4.927    
        4.927       4.927       4.927       4.927       4.927       4.927       4.927       4.926       4.926       4.926    
        4.926       4.926       4.925       4.925       4.924       4.922       4.921    
  12    4.935       4.933       4.931       4.930       4.929       4.929       4.928       4.928       4.928       4.927    
        4.927       4.927       4.927       4.927       4.927       4.927       4.926       4.926       4.926       4.926    
        4.926       4.926       4.925       4.925       4.924       4.922       4.921    
  13    4.935       4.933       4.931       4.930       4.929       4.929       4.928       4.928       4.928       4.927    
        4.927       4.927       4.927       4.926       4.926       4.926       4.926       4.926       4.926       4.926    
        4.926       4.926       4.925       4.925       4.924       4.922       4.921    
  14    4.935       4.933       4.931       4.930       4.929       4.929       4.928       4.928       4.928       4.927    
        4.927       4.927       4.926       4.926       4.926       4.926       4.926       4.926       4.926       4.926    
        4.926       4.926       4.925       4.925       4.924       4.922       4.921    
  15    4.935       4.933       4.931       4.930       4.929       4.929       4.928       4.928       4.928       4.927    
        4.927       4.927       4.926       4.926       4.926       4.926       4.926       4.926       4.926       4.926    
        4.926       4.926       4.925       4.925       4.924       4.922       4.921    
  16    4.935       4.933       4.931       4.930       4.929       4.929       4.928       4.928       4.928       4.927    
        4.927       4.927       4.926      1.0000E+30   4.926       4.926       4.926       4.926       4.926       4.926    
        4.926       4.926       4.925       4.925       4.924       4.922       4.921    
1
  HEAD IN LAYER   4 AT END OF TIME STEP   1 IN STRESS PERIOD    1
  ---------------------------------------------------------------------------

            1           2           3           4           5           6           7           8           9          10
           11          12          13          14          15          16          17          18          19          20
           21          22          23          24          25          26          27
 ....................................................................................................................................................................................................................................................................................................................................
   1    4.934       4.932       4.931       4.930       4.929       4.929       4.928       4.928       4.928       4.928    
        4.927       4.927       4.927       4.927       4.927       4.927       4.927       4.927       4.926       4.926    
        4.926       4.926       4.925       4.924       4.923       4.922       4.920    
   2    4.934       4.932       4.931       4.930       4.929       4.929       4.928       4.928       4.928       4.927    
        4.927       4.927       4.927       4.927       4.927       4.927       4.927       4.927       4.926       4.926    
        4.926       4.926       4.925       4.924       4.923       4.922       4.920    
   3    4.934       4.932       4.931       4.930       4.929       4.928       4.928       4.928       4.928       4.927    
        4.927       4.927       4.927       4.927       4.927       4.927       4.927       4.927       4.926       4.926    
        4.926       4.926       4.925       4.924       4.923       4.922       4.920    
   4    4.934       4.932       4.931       4.930       4.929       4.928       4.928       4.928       4.928       4.927    
        4.927       4.927       4.927       4.927       4.927       4.927       4.927       4.927       4.926       4.926    
        4.926       4.926       4.925       4.924       4.923       4.922       4.920    
   5    4.934       4.932       4.931       4.930       4.929       4.928       4.928       4.928       4.928       4.927    
        4.927       4.927       4.927       4.927       4.927       4.927       4.927       4.926       4.926       4.926    
        4.926       4.925       4.925       4.924       4.923       4.922       4.920    
   6    4.934       4.932       4.931       4.930       4.929       4.928       4.928       4.928       4.927       4.927    
        4.927       4.927       4.927       4.927       4.927       4.927       4.927       4.926       4.926       4.926    
        4.926       4.925       4.925       4.924       4.923       4.922       4.920    
   7    4.934       4.932       4.931       4.930       4.929       4.928       4.928       4.928       4.927       4.927    
        4.927       4.927       4.927       4.927       4.927       4.927       4.926       4.926       4.926       4.926    
        4.926       4.925       4.925       4.924       4.923       4.922       4.920    
   8    4.934       4.932       4.931       4.930       4.929       4.928       4.928       4.928       4.927       4.927    
        4.927       4.927       4.927       4.927       4.927       4.927       4.926       4.926       4.926       4.926    
        4.926       4.925       4.925       4.924       4.923       4.922       4.920    
   9    4.934       4.932       4.931       4.930       4.929       4.928       4.928       4.928       4.927       4.927    
        4.927       4.927       4.927       4.927       4.927       4.927       4.926       4.926       4.926       4.926    
        4.926       4.925       4.925       4.924       4.923       4.922       4.920    
  10    4.934       4.932       4.931       4.930       4.929       4.928       4.928       4.928       4.927       4.927    
        4.927       4.927       4.927       4.927       4.927       4.926       4.926       4.926       4.926       4.926    
        4.926       4.925       4.925       4.924       4.923       4.922       4.920    
  11    4.934       4.932       4.931       4.930       4.929       4.928       4.928       4.928       4.927       4.927    
        4.927       4.927       4.927       4.927       4.926       4.926       4.926       4.926       4.926       4.926    
        4.926       4.925       4.925       4.924       4.923       4.922       4.920    
  12    4.934       4.932       4.931       4.930       4.929       4.928       4.928       4.928       4.927       4.927    
        4.927       4.927       4.926       4.926       4.926       4.926       4.926       4.926       4.926       4.926    
        4.926       4.925       4.925       4.924       4.923       4.922       4.920    
  13    4.934       4.932       4.931       4.930       4.929       4.928       4.928       4.928       4.927       4.927    
        4.927       4.927       4.926       4.926       4.926       4.926       4.926       4.926       4.926       4.926    
        4.926       4.925       4.925       4.924       4.923       4.922       4.920    
  14    4.934       4.932       4.931       4.930       4.929       4.928       4.928       4.927       4.927       4.927    
        4.927       4.927       4.926       4.926       4.926       4.926       4.926       4.926       4.926       4.926    
        4.926       4.925       4.925       4.924       4.923       4.922       4.920    
  15    4.934       4.932       4.931       4.930       4.929       4.928       4.928       4.927       4.927       4.927    
        4.927       4.926       4.926       4.926       4.926       4.926       4.926       4.926       4.926       4.926    
        4.926       4.925       4.925       4.924       4.923       4.922       4.920    
  16    4.934       4.932       4.931       4.930       4.929       4.928       4.928       4.927       4.927       4.927    
        4.927       4.926       4.926      1.0000E+30   4.926       4.926       4.926       4.926       4.926       4.926    
        4.926       4.925       4.925       4.924       4.923       4.922       4.920    
1
  HEAD IN LAYER   5 AT END OF TIME STEP   1 IN STRESS PERIOD    1
  ---------------------------------------------------------------------------

            1           2           3           4           5           6           7           8           9          10
           11          12          13          14          15          16          17          18          19          20
           21          22          23          24          25          26          27
 ....................................................................................................................................................................................................................................................................................................................................
   1    4.934       4.932       4.931       4.929       4.929       4.928       4.928       4.928       4.927       4.927    
        4.927       4.927       4.927       4.927       4.927       4.927       4.926       4.926       4.926       4.926    
        4.926       4.925       4.925       4.924       4.923       4.921       4.920    
   2    4.934       4.932       4.931       4.929       4.929       4.928       4.928       4.927       4.927       4.927    
        4.927       4.927       4.927       4.927       4.927       4.927       4.926       4.926       4.926       4.926    
        4.926       4.925       4.925       4.924       4.923       4.921       4.920    
   3    4.934       4.932       4.931       4.929       4.929       4.928       4.928       4.927       4.927       4.927    
        4.927       4.927       4.927       4.927       4.927       4.926       4.926       4.926       4.926       4.926    
        4.926       4.925       4.925       4.924       4.923       4.921       4.920    
   4    4.934       4.932       4.931       4.929       4.929       4.928       4.928       4.927       4.927       4.927    
        4.927       4.927       4.927       4.927       4.927       4.926       4.926       4.926       4.926       4.926    
        4.926       4.925       4.925       4.924       4.923       4.921       4.920    
   5    4.934       4.932       4.931       4.929       4.929       4.928       4.928       4.927       4.927       4.927    
        4.927       4.927       4.927       4.927       4.926       4.926       4.926       4.926       4.926       4.926    
        4.926       4.925       4.925       4.924       4.923       4.921       4.920    
   6    4.934       4.932       4.931       4.929       4.929       4.928       4.928       4.927       4.927       4.927    
        4.927       4.927       4.927       4.927       4.926       4.926       4.926       4.926       4.926       4.926    
        4.925       4.925       4.925       4.924       4.923       4.921       4.920    
   7    4.934       4.932       4.931       4.929       4.929       4.928       4.928       4.927       4.927       4.927    
        4.927       4.927       4.927       4.926       4.926       4.926       4.926       4.926       4.926       4.926    
        4.925       4.925       4.925       4.924       4.923       4.921       4.920    
   8    4.934       4.932       4.931       4.929       4.929       4.928       4.928       4.927       4.927       4.927    
        4.927       4.927       4.927       4.926       4.926       4.926       4.926       4.926       4.926       4.926    
        4.925       4.925       4.925       4.924       4.923       4.921       4.920    
   9    4.934       4.932       4.931       4.929       4.929       4.928       4.928       4.927       4.927       4.927    
        4.927       4.927       4.926       4.926       4.926       4.926       4.926       4.926       4.926       4.926    
        4.925       4.925       4.925       4.924       4.923       4.921       4.920    
  10    4.934       4.932       4.931       4.929       4.929       4.928       4.928       4.927       4.927       4.927    
        4.927       4.927       4.926       4.926       4.926       4.926       4.926       4.926       4.926       4.926    
        4.925       4.925       4.925       4.924       4.923       4.921       4.920    
  11    4.934       4.932       4.931       4.929       4.929       4.928       4.928       4.927       4.927       4.927    
        4.927       4.926       4.926       4.926       4.926       4.926       4.926       4.926       4.926       4.926    
        4.925       4.925       4.925       4.924       4.923       4.921       4.920    
  12    4.934       4.932       4.931       4.929       4.929       4.928       4.928       4.927       4.927       4.927    
        4.927       4.926       4.926       4.926       4.926       4.926       4.926       4.926       4.926       4.926    
        4.925       4.925       4.925       4.924       4.923       4.921       4.920    
  13    4.934       4.932       4.931       4.929       4.929       4.928       4.928       4.927       4.927       4.927    
        4.927       4.926       4.926       4.926       4.926       4.926       4.926       4.926       4.926       4.926    
        4.925       4.925       4.925       4.924       4.923       4.921       4.920    
  14    4.934       4.932       4.931       4.929       4.929       4.928       4.928       4.927       4.927       4.927    
        4.927       4.926       4.926       4.926       4.926       4.926       4.926       4.926       4.926       4.926    
        4.925       4.925       4.925       4.924       4.923       4.921       4.920    
  15    4.934       4.932       4.931       4.929       4.929       4.928       4.928       4.927       4.927       4.927    
        4.927       4.926       4.926       4.926       4.926       4.926       4.926       4.926       4.926       4.926    
        4.925       4.925       4.925       4.924       4.923       4.921       4.920    
  16    4.934       4.932       4.931       4.929       4.929       4.928       4.928       4.927       4.927       4.927    
        4.927       4.926       4.926      1.0000E+30   4.926       4.926       4.926       4.926       4.926       4.926    
        4.925       4.925       4.925       4.924       4.923       4.921       4.920    
1
  HEAD IN LAYER   6 AT END OF TIME STEP   1 IN STRESS PERIOD    1
  ---------------------------------------------------------------------------

            1           2           3           4           5           6           7           8           9          10
           11          12          13          14          15          16          17          18          19          20
           21          22          23          24          25          26          27
 ....................................................................................................................................................................................................................................................................................................................................
   1    4.933       4.932       4.930       4.929       4.928       4.928       4.927       4.927       4.927       4.927    
        4.927       4.926       4.926       4.926       4.926       4.926       4.926       4.926       4.926       4.926    
        4.925       4.925       4.924       4.924       4.922       4.921       4.919    
   2    4.933       4.932       4.930       4.929       4.928       4.928       4.927       4.927       4.927       4.927    
        4.927       4.926       4.926       4.926       4.926       4.926       4.926       4.926       4.926       4.926    
        4.925       4.925       4.924       4.924       4.922       4.921       4.919    
   3    4.933       4.932       4.930       4.929       4.928       4.928       4.927       4.927       4.927       4.927    
        4.927       4.926       4.926       4.926       4.926       4.926       4.926       4.926       4.926       4.925    
        4.925       4.925       4.924       4.924       4.922       4.921       4.919    
   4    4.933       4.932       4.930       4.929       4.928       4.928       4.927       4.927       4.927       4.927    
        4.927       4.926       4.926       4.926       4.926       4.926       4.926       4.926       4.926       4.925    
        4.925       4.925       4.924       4.924       4.922       4.921       4.919    
   5    4.933       4.932       4.930       4.929       4.928       4.928       4.927       4.927       4.927       4.927    
        4.927       4.926       4.926       4.926       4.926       4.926       4.926       4.926       4.926       4.925    
        4.925       4.925       4.924       4.924       4.922       4.921       4.919    
   6    4.933       4.932       4.930       4.929       4.928       4.928       4.927       4.927       4.927       4.927    
        4.927       4.926       4.926       4.926       4.926       4.926       4.926       4.926       4.926       4.925    
        4.925       4.925       4.924       4.924       4.922       4.921       4.919    
   7    4.933       4.932       4.930       4.929       4.928       4.928       4.927       4.927       4.927       4.927    
        4.926       4.926       4.926       4.926       4.926       4.926       4.926       4.926       4.926       4.925    
        4.925       4.925       4.924       4.924       4.922       4.921       4.919    
   8    4.933       4.932       4.930       4.929       4.928       4.928       4.927       4.927       4.927       4.927    
        4.926       4.926       4.926       4.926       4.926       4.926       4.926       4.926       4.926       4.925    
        4.925       4.925       4.924       4.924       4.922       4.921       4.919    
   9    4.933       4.932       4.930       4.929       4.928       4.928       4.927       4.927       4.927       4.927    
        4.926       4.926       4.926       4.926       4.926       4.926       4.926       4.926       4.926       4.925    
        4.925       4.925       4.924       4.924       4.922       4.921       4.919    
  10    4.933       4.932       4.930       4.929       4.928       4.928       4.927       4.927       4.927       4.927    
        4.926       4.926       4.926       4.926       4.926       4.926       4.926       4.926       4.926       4.925    
        4.925       4.925       4.924       4.924       4.922       4.921       4.919    
  11    4.933       4.932       4.930       4.929       4.928       4.928       4.927       4.927       4.927       4.927    
        4.926       4.926       4.926       4.926       4.926       4.926       4.926       4.926       4.926       4.925    
        4.925       4.925       4.924       4.924       4.922       4.921       4.919    
  12    4.933       4.932       4.930       4.929       4.928       4.928       4.927       4.927       4.927       4.927    
        4.926       4.926       4.926       4.926       4.926       4.926       4.926       4.926       4.926       4.925    
        4.925       4.925       4.924       4.924       4.922       4.921       4.919    
  13    4.933       4.932       4.930       4.929       4.928       4.928       4.927       4.927       4.927       4.927    
        4.926       4.926       4.926       4.926       4.926       4.926       4.926       4.926       4.926       4.925    
        4.925       4.925       4.924       4.924       4.922       4.921       4.919    
  14    4.933       4.932       4.930       4.929       4.928       4.928       4.927       4.927       4.927       4.927    
        4.926       4.926       4.926       4.926       4.926       4.926       4.926       4.926       4.926       4.925    
        4.925       4.925       4.924       4.924       4.922       4.921       4.919    
  15    4.933       4.932       4.930       4.929       4.928       4.928       4.927       4.927       4.927       4.927    
        4.926       4.926       4.926       4.926       4.926       4.926       4.926       4.926       4.926       4.925    
        4.925       4.925       4.924       4.924       4.922       4.921       4.919    
  16    4.933       4.932       4.930       4.929       4.928       4.928       4.927       4.927       4.927       4.927    
        4.926       4.926       4.926      1.0000E+30   4.926       4.926       4.926       4.926       4.926       4.925    
        4.925       4.925       4.924       4.924       4.922       4.921       4.919    
1
  HEAD IN LAYER   7 AT END OF TIME STEP   1 IN STRESS PERIOD    1
  ---------------------------------------------------------------------------

            1           2           3           4           5           6           7           8           9          10
           11          12          13          14          15          16          17          18          19          20
           21          22          23          24          25          26          27
 ....................................................................................................................................................................................................................................................................................................................................
   1    4.933       4.931       4.930       4.929       4.928       4.927       4.927       4.927       4.927       4.926    
        4.926       4.926       4.926       4.926       4.926       4.926       4.926       4.926       4.925       4.925    
        4.925       4.925       4.924       4.923       4.922       4.921       4.919    
   2    4.933       4.931       4.930       4.929       4.928       4.927       4.927       4.927       4.927       4.926    
        4.926       4.926       4.926       4.926       4.926       4.926       4.926       4.926       4.925       4.925    
        4.925       4.925       4.924       4.923       4.922       4.921       4.919    
   3    4.933       4.931       4.930       4.929       4.928       4.927       4.927       4.927       4.927       4.926    
        4.926       4.926       4.926       4.926       4.926       4.926       4.926       4.926       4.925       4.925    
        4.925       4.925       4.924       4.923       4.922       4.921       4.919    
   4    4.933       4.931       4.930       4.929       4.928       4.927       4.927       4.927       4.927       4.926    
        4.926       4.926       4.926       4.926       4.926       4.926       4.926       4.926       4.925       4.925    
        4.925       4.925       4.924       4.923       4.922       4.921       4.919    
   5    4.933       4.931       4.930       4.929       4.928       4.927       4.927       4.927       4.927       4.926    
        4.926       4.926       4.926       4.926       4.926       4.926       4.926       4.926       4.925       4.925    
        4.925       4.925       4.924       4.923       4.922       4.921       4.919    
   6    4.933       4.931       4.930       4.929       4.928       4.927       4.927       4.927       4.927       4.926    
        4.926       4.926       4.926       4.926       4.926       4.926       4.926       4.926       4.925       4.925    
        4.925       4.925       4.924       4.923       4.922       4.921       4.919    
   7    4.933       4.931       4.930       4.929       4.928       4.927       4.927       4.927       4.927       4.926    
        4.926       4.926       4.926       4.926       4.926       4.926       4.926       4.925       4.925       4.925    
        4.925       4.925       4.924       4.923       4.922       4.921       4.919    
   8    4.933       4.931       4.930       4.929       4.928       4.927       4.927       4.927       4.927       4.926    
        4.926       4.926       4.926       4.926       4.926       4.926       4.926       4.925       4.925       4.925    
        4.925       4.925       4.924       4.923       4.922       4.921       4.919    
   9    4.933       4.931       4.930       4.929       4.928       4.927       4.927       4.927       4.927       4.926    
        4.926       4.926       4.926       4.926       4.926       4.926       4.926       4.925       4.925       4.925    
        4.925       4.925       4.924       4.923       4.922       4.921       4.919    
  10    4.933       4.931       4.930       4.929       4.928       4.927       4.927       4.927       4.927       4.926    
        4.926       4.926       4.926       4.926       4.926       4.926       4.926       4.925       4.925       4.925    
        4.925       4.924       4.924       4.923       4.922       4.921       4.919    
  11    4.933       4.931       4.930       4.929       4.928       4.927       4.927       4.927       4.927       4.926    
        4.926       4.926       4.926       4.926       4.926       4.926       4.926       4.925       4.925       4.925    
        4.925       4.924       4.924       4.923       4.922       4.921       4.919    
  12    4.933       4.931       4.930       4.929       4.928       4.927       4.927       4.927       4.927       4.926    
        4.926       4.926       4.926       4.926       4.926       4.926       4.926       4.925       4.925       4.925    
        4.925       4.924       4.924       4.923       4.922       4.921       4.919    
  13    4.933       4.931       4.930       4.929       4.928       4.927       4.927       4.927       4.927       4.926    
        4.926       4.926       4.926       4.926       4.926       4.926       4.926       4.925       4.925       4.925    
        4.925       4.924       4.924       4.923       4.922       4.921       4.919    
  14    4.933       4.931       4.930       4.929       4.928       4.927       4.927       4.927       4.927       4.926    
        4.926       4.926       4.926       4.926       4.926       4.926       4.926       4.925       4.925       4.925    
        4.925       4.924       4.924       4.923       4.922       4.921       4.919    
  15    4.933       4.931       4.930       4.929       4.928       4.927       4.927       4.927       4.927       4.926    
        4.926       4.926       4.926       4.926       4.926       4.926       4.926       4.925       4.925       4.925    
        4.925       4.924       4.924       4.923       4.922       4.921       4.919    
  16    4.933       4.931       4.930       4.929       4.928       4.927       4.927       4.927       4.927       4.926    
        4.926       4.926       4.926      1.0000E+30   4.926       4.926       4.926       4.925       4.925       4.925    
        4.925       4.924       4.924       4.923       4.922       4.921       4.919    
1
  HEAD IN LAYER   8 AT END OF TIME STEP   1 IN STRESS PERIOD    1
  ---------------------------------------------------------------------------

            1           2           3           4           5           6           7           8           9          10
           11          12          13          14          15          16          17          18          19          20
           21          22          23          24          25          26          27
 ....................................................................................................................................................................................................................................................................................................................................
   1    4.932       4.931       4.929       4.928       4.928       4.927       4.927       4.926       4.926       4.926    
        4.926       4.926       4.926       4.926       4.926       4.925       4.925       4.925       4.925       4.925    
        4.925       4.924       4.924       4.923       4.922       4.920       4.919    
   2    4.932       4.931       4.929       4.928       4.928       4.927       4.927       4.926       4.926       4.926    
        4.926       4.926       4.926       4.926       4.926       4.925       4.925       4.925       4.925       4.925    
        4.925       4.924       4.924       4.923       4.922       4.920       4.919    
   3    4.932       4.931       4.929       4.928       4.928       4.927       4.927       4.926       4.926       4.926    
        4.926       4.926       4.926       4.926       4.926       4.925       4.925       4.925       4.925       4.925    
        4.925       4.924       4.924       4.923       4.922       4.920       4.919    
   4    4.932       4.931       4.929       4.928       4.928       4.927       4.927       4.926       4.926       4.926    
        4.926       4.926       4.926       4.926       4.926       4.925       4.925       4.925       4.925       4.925    
        4.925       4.924       4.924       4.923       4.922       4.920       4.919    
   5    4.932       4.931       4.929       4.928       4.928       4.927       4.927       4.926       4.926       4.926    
        4.926       4.926       4.926       4.926       4.926       4.926       4.925       4.925       4.925       4.925    
        4.925       4.924       4.924       4.923       4.922       4.920       4.919    
   6    4.932       4.931       4.929       4.928       4.928       4.927       4.927       4.926       4.926       4.926    
        4.926       4.926       4.926       4.926       4.926       4.926       4.925       4.925       4.925       4.925    
        4.925       4.924       4.924       4.923       4.922       4.920       4.919    
   7    4.932       4.931       4.929       4.928       4.928       4.927       4.927       4.926       4.926       4.926    
        4.926       4.926       4.926       4.926       4.926       4.926       4.925       4.925       4.925       4.925    
        4.925       4.924       4.924       4.923       4.922       4.920       4.919    
   8    4.932       4.931       4.929       4.928       4.928       4.927       4.927       4.926       4.926       4.926    
        4.926       4.926       4.926       4.926       4.926       4.926       4.925       4.925       4.925       4.925    
        4.925       4.924       4.924       4.923       4.922       4.920       4.919    
   9    4.932       4.931       4.929       4.928       4.928       4.927       4.927       4.927       4.926       4.926    
        4.926       4.926       4.926       4.926       4.926       4.926       4.925       4.925       4.925       4.925    
        4.925       4.924       4.924       4.923       4.922       4.920       4.919    
  10    4.932       4.931       4.929       4.928       4.928       4.927       4.927       4.927       4.926       4.926    
        4.926       4.926       4.926       4.926       4.926       4.926       4.925       4.925       4.925       4.925    
        4.925       4.924       4.924       4.923       4.922       4.920       4.919    
  11    4.932       4.931       4.929       4.928       4.928       4.927       4.927       4.927       4.926       4.926    
        4.926       4.926       4.926       4.926       4.926       4.926       4.925       4.925       4.925       4.925    
        4.925       4.924       4.924       4.923       4.922       4.920       4.919    
  12    4.932       4.931       4.929       4.928       4.928       4.927       4.927       4.927       4.926       4.926    
        4.926       4.926       4.926       4.926       4.926       4.926       4.925       4.925       4.925       4.925    
        4.925       4.924       4.924       4.923       4.922       4.920       4.919    
  13    4.932       4.931       4.929       4.928       4.928       4.927       4.927       4.927       4.926       4.926    
        4.926       4.926       4.926       4.926       4.926       4.926       4.925       4.925       4.925       4.925    
        4.925       4.924       4.924       4.923       4.922       4.920       4.919    
  14    4.932       4.931       4.929       4.928       4.928       4.927       4.927       4.927       4.926       4.926    
        4.926       4.926       4.926       4.926       4.926       4.926       4.925       4.925       4.925       4.925    
        4.925       4.924       4.924       4.923       4.922       4.920       4.919    
  15    4.932       4.931       4.929       4.928       4.928       4.927       4.927       4.927       4.926       4.926    
        4.926       4.926       4.926       4.926       4.926       4.926       4.925       4.925       4.925       4.925    
        4.925       4.924       4.924       4.923       4.922       4.920       4.919    
  16    4.932       4.931       4.929       4.928       4.928       4.927       4.927       4.927       4.926       4.926    
        4.926       4.926       4.926      1.0000E+30   4.926       4.926       4.925       4.925       4.925       4.925    
        4.925       4.924       4.924       4.923       4.922       4.920       4.919    
1
  HEAD IN LAYER   9 AT END OF TIME STEP   1 IN STRESS PERIOD    1
  ---------------------------------------------------------------------------

            1           2           3           4           5           6           7           8           9          10
           11          12          13          14          15          16          17          18          19          20
           21          22          23          24          25          26          27
 ....................................................................................................................................................................................................................................................................................................................................
   1    4.932       4.931       4.929       4.928       4.927       4.927       4.926       4.926       4.926       4.926    
        4.926       4.925       4.925       4.925       4.925       4.925       4.925       4.925       4.925       4.924    
        4.924       4.924       4.923       4.923       4.921       4.920       4.919    
   2    4.932       4.931       4.929       4.928       4.927       4.927       4.926       4.926       4.926       4.926    
        4.926       4.925       4.925       4.925       4.925       4.925       4.925       4.925       4.925       4.924    
        4.924       4.924       4.923       4.923       4.921       4.920       4.919    
   3    4.932       4.931       4.929       4.928       4.927       4.927       4.926       4.926       4.926       4.926    
        4.926       4.925       4.925       4.925       4.925       4.925       4.925       4.925       4.925       4.925    
        4.924       4.924       4.923       4.923       4.921       4.920       4.919    
   4    4.932       4.931       4.929       4.928       4.927       4.927       4.926       4.926       4.926       4.926    
        4.926       4.926       4.925       4.925       4.925       4.925       4.925       4.925       4.925       4.925    
        4.924       4.924       4.923       4.923       4.921       4.920       4.919    
   5    4.932       4.931       4.929       4.928       4.927       4.927       4.926       4.926       4.926       4.926    
        4.926       4.926       4.925       4.925       4.925       4.925       4.925       4.925       4.925       4.925    
        4.924       4.924       4.923       4.923       4.921       4.920       4.919    
   6    4.932       4.931       4.929       4.928       4.927       4.927       4.926       4.926       4.926       4.926    
        4.926       4.926       4.925       4.925       4.925       4.925       4.925       4.925       4.925       4.925    
        4.924       4.924       4.923       4.923       4.921       4.920       4.919    
   7    4.932       4.931       4.929       4.928       4.927       4.927       4.926       4.926       4.926       4.926    
        4.926       4.926       4.926       4.925       4.925       4.925       4.925       4.925       4.925       4.925    
        4.924       4.924       4.923       4.923       4.921       4.920       4.919    
   8    4.932       4.931       4.929       4.928       4.927       4.927       4.926       4.926       4.926       4.926    
        4.926       4.926       4.926       4.925       4.925       4.925       4.925       4.925       4.925       4.925    
        4.924       4.924       4.923       4.923       4.921       4.920       4.919    
   9    4.932       4.931       4.929       4.928       4.927       4.927       4.926       4.926       4.926       4.926    
        4.926       4.926       4.926       4.925       4.925       4.925       4.925       4.925       4.925       4.925    
        4.924       4.924       4.923       4.923       4.921       4.920       4.919    
  10    4.932       4.931       4.929       4.928       4.927       4.927       4.927       4.926       4.926       4.926    
        4.926       4.926       4.926       4.926       4.925       4.925       4.925       4.925       4.925       4.925    
        4.924       4.924       4.923       4.923       4.921       4.920       4.919    
  11    4.932       4.931       4.929       4.928       4.927       4.927       4.927       4.926       4.926       4.926    
        4.926       4.926       4.926       4.926       4.925       4.925       4.925       4.925       4.925       4.925    
        4.924       4.924       4.923       4.923       4.921       4.920       4.919    
  12    4.932       4.931       4.929       4.928       4.927       4.927       4.927       4.926       4.926       4.926    
        4.926       4.926       4.926       4.926       4.926       4.925       4.925       4.925       4.925       4.925    
        4.924       4.924       4.923       4.923       4.921       4.920       4.919    
  13    4.932       4.931       4.929       4.928       4.927       4.927       4.927       4.926       4.926       4.926    
        4.926       4.926       4.926       4.926       4.926       4.925       4.925       4.925       4.925       4.925    
        4.924       4.924       4.923       4.923       4.921       4.920       4.919    
  14    4.932       4.931       4.929       4.928       4.927       4.927       4.927       4.926       4.926       4.926    
        4.926       4.926       4.926       4.926       4.926       4.925       4.925       4.925       4.925       4.925    
        4.924       4.924       4.923       4.923       4.921       4.920       4.919    
  15    4.932       4.931       4.929       4.928       4.927       4.927       4.927       4.926       4.926       4.926    
        4.926       4.926       4.926       4.926       4.926       4.925       4.925       4.925       4.925       4.925    
        4.924       4.924       4.923       4.923       4.921       4.920       4.919    
  16    4.932       4.931       4.929       4.928       4.927       4.927       4.927       4.926       4.926       4.926    
        4.926       4.926       4.926      1.0000E+30   4.926       4.925       4.925       4.925       4.925       4.925    
        4.924       4.924       4.923       4.923       4.921       4.920       4.919    
1
  HEAD IN LAYER  10 AT END OF TIME STEP   1 IN STRESS PERIOD    1
  ---------------------------------------------------------------------------

            1           2           3           4           5           6           7           8           9          10
           11          12          13          14          15          16          17          18          19          20
           21          22          23          24          25          26          27
 ....................................................................................................................................................................................................................................................................................................................................
   1    4.932       4.930       4.929       4.928       4.927       4.926       4.926       4.926       4.926       4.925    
        4.925       4.925       4.925       4.925       4.925       4.925       4.925       4.925       4.924       4.924    
        4.924       4.924       4.923       4.922       4.921       4.920       4.918    
   2    4.932       4.930       4.929       4.928       4.927       4.926       4.926       4.926       4.926       4.925    
        4.925       4.925       4.925       4.925       4.925       4.925       4.925       4.925       4.924       4.924    
        4.924       4.924       4.923       4.922       4.921       4.920       4.918    
   3    4.932       4.930       4.929       4.928       4.927       4.926       4.926       4.926       4.926       4.925    
        4.925       4.925       4.925       4.925       4.925       4.925       4.925       4.925       4.924       4.924    
        4.924       4.924       4.923       4.922       4.921       4.920       4.918    
   4    4.932       4.930       4.929       4.928       4.927       4.926       4.926       4.926       4.926       4.926    
        4.925       4.925       4.925       4.925       4.925       4.925       4.925       4.925       4.924       4.924    
        4.924       4.924       4.923       4.922       4.921       4.920       4.918    
   5    4.932       4.930       4.929       4.928       4.927       4.927       4.926       4.926       4.926       4.926    
        4.925       4.925       4.925       4.925       4.925       4.925       4.925       4.925       4.924       4.924    
        4.924       4.924       4.923       4.922       4.921       4.920       4.918    
   6    4.932       4.930       4.929       4.928       4.927       4.927       4.926       4.926       4.926       4.926    
        4.925       4.925       4.925       4.925       4.925       4.925       4.925       4.925       4.925       4.924    
        4.924       4.924       4.923       4.922       4.921       4.920       4.918    
   7    4.932       4.930       4.929       4.928       4.927       4.927       4.926       4.926       4.926       4.926    
        4.925       4.925       4.925       4.925       4.925       4.925       4.925       4.925       4.925       4.924    
        4.924       4.924       4.923       4.922       4.921       4.920       4.918    
   8    4.932       4.930       4.929       4.928       4.927       4.927       4.926       4.926       4.926       4.926    
        4.926       4.925       4.925       4.925       4.925       4.925       4.925       4.925       4.925       4.924    
        4.924       4.924       4.923       4.922       4.921       4.920       4.918    
   9    4.932       4.930       4.929       4.928       4.927       4.927       4.926       4.926       4.926       4.926    
        4.926       4.925       4.925       4.925       4.925       4.925       4.925       4.925       4.925       4.924    
        4.924       4.924       4.923       4.922       4.921       4.920       4.918    
  10    4.932       4.930       4.929       4.928       4.927       4.927       4.926       4.926       4.926       4.926    
        4.926       4.925       4.925       4.925       4.925       4.925       4.925       4.925       4.925       4.924    
        4.924       4.924       4.923       4.922       4.921       4.920       4.918    
  11    4.932       4.930       4.929       4.928       4.927       4.927       4.926       4.926       4.926       4.926    
        4.926       4.926       4.925       4.925       4.925       4.925       4.925       4.925       4.925       4.924    
        4.924       4.924       4.923       4.922       4.921       4.920       4.918    
  12    4.932       4.930       4.929       4.928       4.927       4.927       4.926       4.926       4.926       4.926    
        4.926       4.926       4.926       4.925       4.925       4.925       4.925       4.925       4.925       4.924    
        4.924       4.924       4.923       4.922       4.921       4.920       4.918    
  13    4.932       4.930       4.929       4.928       4.927       4.927       4.926       4.926       4.926       4.926    
        4.926       4.926       4.926       4.926       4.925       4.925       4.925       4.925       4.925       4.924    
        4.924       4.924       4.923       4.922       4.921       4.920       4.918    
  14    4.932       4.930       4.929       4.928       4.927       4.927       4.926       4.926       4.926       4.926    
        4.926       4.926       4.926       4.926       4.926       4.925       4.925       4.925       4.925       4.924    
        4.924       4.924       4.923       4.922       4.921       4.920       4.918    
  15    4.932       4.930       4.929       4.928       4.927       4.927       4.926       4.926       4.926       4.926    
        4.926       4.926       4.926       4.926       4.926       4.925       4.925       4.925       4.925       4.924    
        4.924       4.924       4.923       4.922       4.921       4.920       4.918    
  16    4.932       4.930       4.929       4.928       4.927       4.927       4.926       4.926       4.926       4.926    
        4.926       4.926       4.926      1.0000E+30   4.926       4.925       4.925       4.925       4.925       4.924    
        4.924       4.924       4.923       4.922       4.921       4.920       4.918    
1
  HEAD IN LAYER  11 AT END OF TIME STEP   1 IN STRESS PERIOD    1
  ---------------------------------------------------------------------------

            1           2           3           4           5           6           7           8           9          10
           11          12          13          14          15          16          17          18          19          20
           21          22          23          24          25          26          27
 ....................................................................................................................................................................................................................................................................................................................................
   1    4.932       4.930       4.928       4.927       4.927       4.926       4.926       4.925       4.925       4.925    
        4.925       4.925       4.925       4.925       4.925       4.924       4.924       4.924       4.924       4.924    
        4.924       4.923       4.923       4.922       4.921       4.919       4.918    
[...]
   6    4.926       4.925       4.923       4.922       4.922       4.921       4.921       4.920       4.920       4.920    
        4.920       4.920       4.920       4.920       4.919       4.919       4.919       4.919       4.919       4.919    
        4.918       4.918       4.918       4.917       4.916       4.914       4.913    
   7    4.926       4.925       4.923       4.922       4.922       4.921       4.921       4.920       4.920       4.920    
        4.920       4.920       4.920       4.920       4.919       4.919       4.919       4.919       4.919       4.919    
        4.918       4.918       4.918       4.917       4.916       4.914       4.913    
   8    4.926       4.925       4.923       4.922       4.922       4.921       4.921       4.920       4.920       4.920    
        4.920       4.920       4.920       4.920       4.919       4.919       4.919       4.919       4.919       4.919    
        4.918       4.918       4.918       4.917       4.916       4.914       4.913    
   9    4.926       4.925       4.923       4.922       4.922       4.921       4.921       4.920       4.920       4.920    
        4.920       4.920       4.920       4.920       4.919       4.919       4.919       4.919       4.919       4.919    
        4.918       4.918       4.918       4.917       4.916       4.914       4.913    
  10    4.926       4.925       4.923       4.922       4.922       4.921       4.921       4.920       4.920       4.920    
        4.920       4.920       4.920       4.920       4.919       4.919       4.919       4.919       4.919       4.919    
        4.918       4.918       4.918       4.917       4.916       4.914       4.913    
  11    4.926       4.925       4.923       4.922       4.922       4.921       4.921       4.920       4.920       4.920    
        4.920       4.920       4.920       4.920       4.919       4.919       4.919       4.919       4.919       4.919    
        4.918       4.918       4.918       4.917       4.916       4.914       4.913    
  12    4.926       4.925       4.923       4.922       4.922       4.921       4.921       4.920       4.920       4.920    
        4.920       4.920       4.920       4.920       4.919       4.919       4.919       4.919       4.919       4.919    
        4.918       4.918       4.918       4.917       4.916       4.914       4.913    
  13    4.926       4.925       4.923       4.922       4.922       4.921       4.921       4.920       4.920       4.920    
        4.920       4.920       4.920       4.920       4.919       4.919       4.919       4.919       4.919       4.919    
        4.918       4.918       4.918       4.917       4.916       4.914       4.913    
  14    4.926       4.925       4.923       4.922       4.922       4.921       4.921       4.920       4.920       4.920    
        4.920       4.920       4.920       4.920       4.919       4.919       4.919       4.919       4.919       4.919    
        4.918       4.918       4.918       4.917       4.916       4.914       4.913    
  15    4.926       4.925       4.923       4.922       4.922       4.921       4.921       4.920       4.920       4.920    
        4.920       4.920       4.920       4.920       4.919       4.919       4.919       4.919       4.919       4.919    
        4.918       4.918       4.918       4.917       4.916       4.914       4.913    
  16    4.926       4.925       4.923       4.922       4.922       4.921       4.921       4.920       4.920       4.920    
        4.920       4.920       4.920       4.920       4.919       4.919       4.919       4.919       4.919       4.919    
        4.918       4.918       4.918       4.917       4.916       4.914       4.913    
1
  HEAD IN LAYER  40 AT END OF TIME STEP   1 IN STRESS PERIOD    1
  ---------------------------------------------------------------------------

            1           2           3           4           5           6           7           8           9          10
           11          12          13          14          15          16          17          18          19          20
           21          22          23          24          25          26          27
 ....................................................................................................................................................................................................................................................................................................................................
   1    4.926       4.925       4.923       4.922       4.922       4.921       4.921       4.920       4.920       4.920    
        4.920       4.920       4.920       4.920       4.919       4.919       4.919       4.919       4.919       4.919    
        4.918       4.918       4.918       4.917       4.916       4.914       4.913    
   2    4.926       4.925       4.923       4.922       4.922       4.921       4.921       4.920       4.920       4.920    
        4.920       4.920       4.920       4.920       4.919       4.919       4.919       4.919       4.919       4.919    
        4.918       4.918       4.918       4.917       4.916       4.914       4.913    
   3    4.926       4.925       4.923       4.922       4.922       4.921       4.921       4.920       4.920       4.920    
        4.920       4.920       4.920       4.920       4.919       4.919       4.919       4.919       4.919       4.919    
        4.918       4.918       4.918       4.917       4.916       4.914       4.913    
   4    4.926       4.925       4.923       4.922       4.922       4.921       4.921       4.920       4.920       4.920    
        4.920       4.920       4.920       4.920       4.919       4.919       4.919       4.919       4.919       4.919    
        4.918       4.918       4.918       4.917       4.916       4.914       4.913    
   5    4.926       4.925       4.923       4.922       4.922       4.921       4.921       4.920       4.920       4.920    
        4.920       4.920       4.920       4.920       4.919       4.919       4.919       4.919       4.919       4.919    
        4.918       4.918       4.918       4.917       4.916       4.914       4.913    
   6    4.926       4.925       4.923       4.922       4.922       4.921       4.921       4.920       4.920       4.920    
        4.920       4.920       4.920       4.920       4.919       4.919       4.919       4.919       4.919       4.919    
        4.918       4.918       4.918       4.917       4.916       4.914       4.913    
   7    4.926       4.925       4.923       4.922       4.922       4.921       4.921       4.920       4.920       4.920    
        4.920       4.920       4.920       4.920       4.919       4.919       4.919       4.919       4.919       4.919    
        4.918       4.918       4.918       4.917       4.916       4.914       4.913    
   8    4.926       4.925       4.923       4.922       4.922       4.921       4.921       4.920       4.920       4.920    
        4.920       4.920       4.920       4.920       4.919       4.919       4.919       4.919       4.919       4.919    
        4.918       4.918       4.918       4.917       4.916       4.914       4.913    
   9    4.926       4.925       4.923       4.922       4.922       4.921       4.921       4.920       4.920       4.920    
        4.920       4.920       4.920       4.920       4.919       4.919       4.919       4.919       4.919       4.919    
        4.918       4.918       4.918       4.917       4.916       4.914       4.913    
  10    4.926       4.925       4.923       4.922       4.922       4.921       4.921       4.920       4.920       4.920    
        4.920       4.920       4.920       4.920       4.919       4.919       4.919       4.919       4.919       4.919    
        4.918       4.918       4.918       4.917       4.916       4.914       4.913    
  11    4.926       4.925       4.923       4.922       4.922       4.921       4.921       4.920       4.920       4.920    
        4.920       4.920       4.920       4.920       4.919       4.919       4.919       4.919       4.919       4.919    
        4.918       4.918       4.918       4.917       4.916       4.914       4.913    
  12    4.926       4.925       4.923       4.922       4.922       4.921       4.921       4.920       4.920       4.920    
        4.920       4.920       4.920       4.920       4.919       4.919       4.919       4.919       4.919       4.919    
        4.918       4.918       4.918       4.917       4.916       4.914       4.913    
  13    4.926       4.925       4.923       4.922       4.922       4.921       4.921       4.920       4.920       4.920    
        4.920       4.920       4.920       4.920       4.919       4.919       4.919       4.919       4.919       4.919    
        4.918       4.918       4.918       4.917       4.916       4.914       4.913    
  14    4.926       4.925       4.923       4.922       4.922       4.921       4.921       4.920       4.920       4.920    
        4.920       4.920       4.920       4.920       4.919       4.919       4.919       4.919       4.919       4.919    
        4.918       4.918       4.918       4.917       4.916       4.914       4.913    
  15    4.926       4.925       4.923       4.922       4.922       4.921       4.921       4.920       4.920       4.920    
        4.920       4.920       4.920       4.920       4.919       4.919       4.919       4.919       4.919       4.919    
        4.918       4.918       4.918       4.917       4.916       4.914       4.913    
  16    4.926       4.925       4.923       4.922       4.922       4.921       4.921       4.920       4.920       4.920    
        4.920       4.920       4.920       4.920       4.919       4.919       4.919       4.919       4.919       4.919    
        4.918       4.918       4.918       4.917       4.916       4.914       4.913    
1
  HEAD IN LAYER  41 AT END OF TIME STEP   1 IN STRESS PERIOD    1
  ---------------------------------------------------------------------------

            1           2           3           4           5           6           7           8           9          10
           11          12          13          14          15          16          17          18          19          20
           21          22          23          24          25          26          27
 ....................................................................................................................................................................................................................................................................................................................................
   1    4.926       4.925       4.923       4.922       4.921       4.921       4.921       4.920       4.920       4.920    
        4.920       4.920       4.920       4.920       4.919       4.919       4.919       4.919       4.919       4.919    
        4.918       4.918       4.918       4.917       4.916       4.914       4.913    
   2    4.926       4.925       4.923       4.922       4.921       4.921       4.921       4.920       4.920       4.920    
        4.920       4.920       4.920       4.920       4.919       4.919       4.919       4.919       4.919       4.919    
        4.918       4.918       4.918       4.917       4.916       4.914       4.913    
   3    4.926       4.925       4.923       4.922       4.921       4.921       4.921       4.920       4.920       4.920    
        4.920       4.920       4.920       4.920       4.919       4.919       4.919       4.919       4.919       4.919    
        4.918       4.918       4.918       4.917       4.916       4.914       4.913    
   4    4.926       4.925       4.923       4.922       4.921       4.921       4.921       4.920       4.920       4.920    
        4.920       4.920       4.920       4.920       4.919       4.919       4.919       4.919       4.919       4.919    
        4.918       4.918       4.918       4.917       4.916       4.914       4.913    
   5    4.926       4.925       4.923       4.922       4.921       4.921       4.921       4.920       4.920       4.920    
        4.920       4.920       4.920       4.920       4.919       4.919       4.919       4.919       4.919       4.919    
        4.918       4.918       4.918       4.917       4.916       4.914       4.913    
   6    4.926       4.925       4.923       4.922       4.921       4.921       4.921       4.920       4.920       4.920    
        4.920       4.920       4.920       4.920       4.919       4.919       4.919       4.919       4.919       4.919    
        4.918       4.918       4.918       4.917       4.916       4.914       4.913    
   7    4.926       4.925       4.923       4.922       4.921       4.921       4.921       4.920       4.920       4.920    
        4.920       4.920       4.920       4.920       4.919       4.919       4.919       4.919       4.919       4.919    
        4.918       4.918       4.918       4.917       4.916       4.914       4.913    
   8    4.926       4.925       4.923       4.922       4.921       4.921       4.921       4.920       4.920       4.920    
        4.920       4.920       4.920       4.920       4.919       4.919       4.919       4.919       4.919       4.919    
        4.918       4.918       4.918       4.917       4.916       4.914       4.913    
   9    4.926       4.925       4.923       4.922       4.921       4.921       4.921       4.920       4.920       4.920    
        4.920       4.920       4.920       4.920       4.919       4.919       4.919       4.919       4.919       4.919    
        4.918       4.918       4.918       4.917       4.916       4.914       4.913    
  10    4.926       4.925       4.923       4.922       4.921       4.921       4.921       4.920       4.920       4.920    
        4.920       4.920       4.920       4.920       4.919       4.919       4.919       4.919       4.919       4.919    
        4.918       4.918       4.918       4.917       4.916       4.914       4.913    
  11    4.926       4.925       4.923       4.922       4.921       4.921       4.921       4.920       4.920       4.920    
        4.920       4.920       4.920       4.920       4.919       4.919       4.919       4.919       4.919       4.919    
        4.918       4.918       4.918       4.917       4.916       4.914       4.913    
  12    4.926       4.925       4.923       4.922       4.921       4.921       4.921       4.920       4.920       4.920    
        4.920       4.920       4.920       4.920       4.919       4.919       4.919       4.919       4.919       4.919    
        4.918       4.918       4.918       4.917       4.916       4.914       4.913    
  13    4.926       4.925       4.923       4.922       4.921       4.921       4.921       4.920       4.920       4.920    
        4.920       4.920       4.920       4.920       4.919       4.919       4.919       4.919       4.919       4.919    
        4.918       4.918       4.918       4.917       4.916       4.914       4.913    
  14    4.926       4.925       4.923       4.922       4.921       4.921       4.921       4.920       4.920       4.920    
        4.920       4.920       4.920       4.920       4.919       4.919       4.919       4.919       4.919       4.919    
        4.918       4.918       4.918       4.917       4.916       4.914       4.913    
  15    4.926       4.925       4.923       4.922       4.921       4.921       4.921       4.920       4.920       4.920    
        4.920       4.920       4.920       4.920       4.919       4.919       4.919       4.919       4.919       4.919    
        4.918       4.918       4.918       4.917       4.916       4.914       4.913    
  16    4.926       4.925       4.923       4.922       4.921       4.921       4.921       4.920       4.920       4.920    
        4.920       4.920       4.920       4.920       4.919       4.919       4.919       4.919       4.919       4.919    
        4.918       4.918       4.918       4.917       4.916       4.914       4.913    


  MAW_0 BUDGET FOR ENTIRE MODEL AT END OF TIME STEP    1, STRESS PERIOD   1
  ------------------------------------------------------------------------------

     CUMULATIVE MAW_0      L**3       RATES FOR THIS TIME STEP      L**3/T
     ------------------                 ------------------------

           IN:                                      IN:
           ---                                      ---
                 GWF =           4.7977                   GWF =           4.7977
                RATE =           0.0000                  RATE =           0.0000
             STORAGE =           0.0000               STORAGE =           0.0000
            CONSTANT =           0.0000              CONSTANT =           0.0000

            TOTAL IN =           4.7977              TOTAL IN =           4.7977

          OUT:                                     OUT:
          ----                                     ----
                 GWF =           4.7977                   GWF =           4.7977
                RATE =           0.0000                  RATE =           0.0000
             STORAGE =           0.0000               STORAGE =           0.0000
            CONSTANT =           0.0000              CONSTANT =           0.0000

           TOTAL OUT =           4.7977             TOTAL OUT =           4.7977

            IN - OUT =       2.0771E-07              IN - OUT =       2.0771E-07

 PERCENT DISCREPANCY =           0.00     PERCENT DISCREPANCY =           0.00



  VOLUME BUDGET FOR ENTIRE MODEL AT END OF TIME STEP    1, STRESS PERIOD   1
  ---------------------------------------------------------------------------------------------------

     CUMULATIVE VOLUME      L**3       RATES FOR THIS TIME STEP      L**3/T          PACKAGE NAME    
     ------------------                 ------------------------                     ----------------

           IN:                                      IN:
           ---                                      ---
                RCHA =          18.2640                  RCHA =          18.2640     RCHA_0                           
                 CHD =         390.3721                   CHD =         390.3721     CHD_0                            
                 MAW =           4.7977                   MAW =           4.7977     MAW_0                            

            TOTAL IN =         413.4338              TOTAL IN =         413.4338

          OUT:                                     OUT:
          ----                                     ----
                RCHA =           0.0000                  RCHA =           0.0000     RCHA_0                           
                 CHD =         408.6361                   CHD =         408.6361     CHD_0                            
                 MAW =           4.7977                   MAW =           4.7977     MAW_0                            

           TOTAL OUT =         413.4337             TOTAL OUT =         413.4337

            IN - OUT =       4.8345E-05              IN - OUT =       4.8345E-05

 PERCENT DISCREPANCY =           0.00     PERCENT DISCREPANCY =           0.00




         TIME SUMMARY AT END OF TIME STEP    1 IN STRESS PERIOD    1
                    SECONDS     MINUTES      HOURS       DAYS        YEARS
                    -----------------------------------------------------------
   TIME STEP LENGTH  86400.      1440.0      24.000      1.0000     2.73785E-03
 STRESS PERIOD TIME  86400.      1440.0      24.000      1.0000     2.73785E-03
         TOTAL TIME  86400.      1440.0      24.000      1.0000     2.73785E-03


end timestep

