                                   MODFLOW 6
                U.S. GEOLOGICAL SURVEY MODULAR HYDROLOGIC MODEL
                          GROUNDWATER FLOW MODEL (GWF)
                            VERSION 6.6.1 02/10/2025

   MODFLOW 6 compiled Feb 14 2025 13:40:10 with Intel(R) Fortran Intel(R) 64
   Compiler Classic for applications running on Intel(R) 64, Version 2021.7.0
                             Build 20220726_000000

This software has been approved for release by the U.S. Geological 
Survey (USGS). Although the software has been subjected to rigorous 
review, the USGS reserves the right to update the software as needed 
pursuant to further analysis and review. No warranty, expressed or 
implied, is made by the USGS or the U.S. Government as to the 
functionality of the software and related material nor shall the 
fact of release constitute any such warranty. Furthermore, the 
software is released on condition that neither the USGS nor the U.S. 
Government shall be held liable for any damages resulting from its 
authorized or unauthorized use. Also refer to the USGS Water 
Resources Software User Rights Notice for complete use, copyright, 
and distribution information.


As a work of the United States Government, this USGS product is 
in the public domain within the United States. You can copy, 
modify, distribute, and perform the work, even for commercial 
purposes, all without asking permission. Additionally, USGS 
waives copyright and related rights in the work worldwide 
through CC0 1.0 Universal Public Domain Dedication 
(https://creativecommons.org/publicdomain/zero/1.0/).

The following GNU Lesser General Public License (LGPL) libraries
are used in this USGS product:

    SPARSKIT version 2.0
      ilut, luson, and qsplit 
      (https://www-users.cse.umn.edu/~saad/software/SPARSKIT/)

    RCM - Reverse Cuthill McKee Ordering
      (https://people.math.sc.edu/Burkardt/f_src/rcm/rcm.html)

    BLAS - Basic Linear Algebra Subprograms Level 1
      (https://people.math.sc.edu/Burkardt/f_src/blas1_d/blas1_d.html)

    SPARSEKIT - Sparse Matrix Utility Package
      amux, dperm, dvperm, rperm, and cperm
      (https://people.sc.fsu.edu/~jburkardt/f77_src/sparsekit/sparsekit.html)

The following BSD-3 License libraries are used in this USGS product:

    Modern Fortran DAG Library
      Copyright (c) 2018, Jacob Williams
      All rights reserved.
      (https://github.com/jacobwilliams/daglib)

MODFLOW 6 compiler options: /O2 /heap-arrays:0 /fpe:0 /traceback /nologo /fpp
/c /module:win64\mod_mf6\ /object:win64\obj_mf6\

System command used to initiate simulation:
C:\Users\gross.DESKTOP-AIRQM2M\anaconda3\Scripts\mf6.exe

MODFLOW was compiled using uniform precision.

Real Variables
  KIND: 8
  TINY (smallest non-zero value):    2.225074-308
  HUGE (largest value):    1.797693+308
  PRECISION: 15
  SIZE IN BITS: 64

Integer Variables
  KIND: 4
  HUGE (largest value): 2147483647
  SIZE IN BITS: 32

Long Integer Variables
  KIND: 8
  HUGE (largest value): 9223372036854775807
  SIZE IN BITS: 64

Logical Variables
  KIND: 4
  SIZE IN BITS: 32
 
 NAMEFILE OPTIONS:
    FLOWS WILL BE SAVED TO BUDGET FILE SPECIFIED IN OUTPUT CONTROL
 END NAMEFILE OPTIONS:

 DIS -- STRUCTURED GRID DISCRETIZATION PACKAGE, VERSION 2 : 3/27/2014 - INPUT READ FROM MEMPATH: __INPUT__/GWF-OUTER/DIS                           


 NPF -- NODE PROPERTY FLOW PACKAGE, VERSION 1, 3/30/2015 INPUT READ FROM MEMPATH: __INPUT__/GWF-OUTER/NPF                           


 IC -- Initial Conditions Package, Version 8, 3/28/2015 input read from mempath: __INPUT__/GWF-OUTER/IC                            


 Setting Discretization Options
    Model length unit [0=UND, 1=FEET, 2=METERS, 3=CENTIMETERS] set as 1
 End Setting Discretization Options

 Setting Discretization Dimensions
    NLAY = 4
    NROW = 61
    NCOL = 40
 End Setting Discretization Dimensions

 Setting Discretization Griddata
    DELR set from input file
    DELC set from input file
    TOP set from input file
    BOTM set from input file
    IDOMAIN set from input file
 End Setting Discretization Griddata


 The specified IDOMAIN results in a reduced number of cells.
 Number of user nodes: 9760
 Number of nodes in solution: 4720


 Setting NPF Options
    Specific discharge will be calculated at cell centers and written to DATA-SPDIS in budget file when requested.
    Values specified for K33 are anisotropy ratios and will be multiplied by K before being used in calculations.
 End Setting NPF Options

 Setting NPF Griddata
    ICELLTYPE set from input file
    K set from input file
    K33 set from input file
    K22 not provided.  Setting K22 = K.
 End Setting NPF Griddata


 RCH   -- RCH PACKAGE, VERSION 8, 2/22/2014 INPUT READ FROM MEMPATH: __INPUT__/GWF-OUTER/RCH-1                         

 PROCESSING RCH BASE OPTIONS
    RCH FLOWS WILL BE PRINTED TO LISTING FILE.
 END OF RCH BASE OPTIONS

 PROCESSING RCHA OPTIONS
    RECHARGE INPUT WILL BE READ AS ARRAY(S).
 END OF RCHA OPTIONS

 CHD   -- CHD PACKAGE, VERSION 8, 2/22/2014 INPUT READ FROM MEMPATH: __INPUT__/GWF-OUTER/CHD-1                         

 PROCESSING CHD BASE OPTIONS
 END OF CHD BASE OPTIONS

 PROCESSING CHD BASE DIMENSIONS
    MAXBOUND =     792
 END OF CHD BASE DIMENSIONS
    STRT set from input file

 STO -- STORAGE PACKAGE, VERSION 1, 5/19/2014 INPUT READ FROM MEMPATH: __INPUT__/GWF-OUTER/STO                           


 PROCESSING STORAGE OPTIONS
 END OF STORAGE OPTIONS
    BINARY GRID INFORMATION WILL BE WRITTEN TO:
      UNIT NUMBER: 1047
      FILE NAME: gwf-outer.dis.grb

 OPENED gwf-outer.dis.grb
 FILE TYPE:DATA(BINARY)   UNIT 1047   STATUS:REPLACE             
 FORMAT:UNFORMATTED            ACCESS:STREAM              
 ACTION:READWRITE           

      THE LAST TIME STEP WILL BE PRINTED
      THE LAST TIME STEP WILL BE PRINTED
 # File generated by Flopy version 3.9.1 on 03/05/2025 at 11:31:55.

 PROCESSING OC OPTIONS

    BUDGET INFORMATION WILL BE WRITTEN TO:
      UNIT NUMBER: 1048
      FILE NAME: gwf-outer.bud

 OPENED gwf-outer.bud
 FILE TYPE:DATA(BINARY)   UNIT 1048   STATUS:REPLACE             
 FORMAT:UNFORMATTED            ACCESS:STREAM              
 ACTION:READWRITE           

    HEAD INFORMATION WILL BE WRITTEN TO:
      UNIT NUMBER: 1049
      FILE NAME: gwf-outer.hds

 OPENED gwf-outer.hds
 FILE TYPE:DATA(BINARY)   UNIT 1049   STATUS:REPLACE             
 FORMAT:UNFORMATTED            ACCESS:STREAM              
 ACTION:READWRITE           

 END OF OC OPTIONS

start timestep kper="1" kstp="1" mode="normal"


 BEGIN READING OUTPUT CONTROL FOR STRESS PERIOD 1
      THE LAST TIME STEP WILL BE SAVED
      THE FOLLOWING STEPS WILL BE SAVED: 1 250 375 500 
      THE LAST TIME STEP WILL BE SAVED
      THE LAST TIME STEP WILL BE SAVED
      THE LAST TIME STEP WILL BE PRINTED
      THE FIRST TIME STEP WILL BE PRINTED
      THE FIRST TIME STEP WILL BE PRINTED
      THE LAST TIME STEP WILL BE PRINTED

 END READING OUTPUT CONTROL FOR STRESS PERIOD 1

 RCHA PACKAGE (RCH-1) FLOW RATES   PERIOD      1   STEP        1
 -----------------------------------------------
   NUMBER   CELLID                    RATE      
 -----------------------------------------------
     1      (1,1,1)               0.0000000     
     2      (1,1,2)               0.0000000     
     3      (1,1,3)               0.0000000     
     4      (1,1,4)               0.0000000     
     5      (1,1,5)               0.0000000     
     6      (1,1,6)               0.0000000     
     7      (1,1,7)               0.0000000     
     8      (1,1,8)               0.0000000     
     9      (1,1,9)               0.0000000     
     10     (1,1,10)              0.0000000     
     11     (1,1,11)              0.0000000     
     12     (1,1,12)              0.0000000     
     13     (1,1,13)              0.0000000     
     14     (1,1,14)              0.0000000     
     15     (1,1,15)              0.0000000     
     16     (1,1,16)              0.0000000     
     17     (1,1,17)              0.0000000     
     18     (1,1,18)              0.0000000     
     19     (1,1,19)              0.0000000     
     20     (1,1,20)              0.0000000     
     21     (1,1,21)              0.0000000     
     22     (1,1,22)              0.0000000     
     23     (1,1,23)              0.0000000     
     24     (1,1,24)              0.0000000     
     25     (1,1,25)              0.0000000     
     26     (1,1,26)              0.0000000     
     27     (1,1,27)              0.0000000     
     28     (1,1,28)              0.0000000     
     29     (1,1,29)              0.0000000     
     30     (1,1,30)              0.0000000     
     31     (1,1,31)              0.0000000     
     32     (1,1,32)              0.0000000     
     33     (1,1,33)              0.0000000     
     34     (1,1,34)              0.0000000     
     35     (1,1,35)              0.0000000     
     36     (1,1,36)              0.0000000     
     37     (1,1,37)              0.0000000     
     38     (1,1,38)              0.0000000     
     39     (1,1,39)              0.0000000     
     40     (1,1,40)              0.0000000     
     41     (1,2,1)               0.0000000     
     42     (1,2,2)               3652.9600     
     43     (1,2,3)               1826.4800     
     44     (1,2,4)               913.24000     
     45     (1,2,5)               456.62000     
     46     (1,2,6)               228.31000     
     47     (1,2,7)               114.15500     
     48     (1,2,8)               114.15500     
     49     (1,2,9)               114.15500     
     50     (1,2,10)              114.15500     
     51     (1,2,11)              114.15500     
     52     (1,2,12)              114.15500     
     53     (1,2,13)              114.15500     
     54     (1,2,14)              114.15500     
     55     (1,2,15)              114.15500     
     56     (1,2,16)              114.15500     
     57     (1,2,17)              114.15500     
     58     (1,2,18)              114.15500     
     59     (1,2,19)              114.15500     
     60     (1,2,20)              114.15500     
     61     (1,2,21)              114.15500     
     62     (1,2,22)              114.15500     
     63     (1,2,23)              114.15500     
     64     (1,2,24)              114.15500     
     65     (1,2,25)              114.15500     
     66     (1,2,26)              114.15500     
     67     (1,2,27)              114.15500     
     68     (1,2,28)              114.15500     
     69     (1,2,29)              114.15500     
     70     (1,2,30)              114.15500     
     71     (1,2,31)              114.15500     
     72     (1,2,32)              114.15500     
     73     (1,2,33)              114.15500     
     74     (1,2,34)              114.15500     
     75     (1,2,35)              228.31000     
     76     (1,2,36)              456.62000     
     77     (1,2,37)              913.24000     
     78     (1,2,38)              1826.4800     
     79     (1,2,39)              3652.9600     
     80     (1,2,40)              0.0000000     
     81     (1,3,1)               0.0000000     
     82     (1,3,2)               3652.9600     
     83     (1,3,3)               1826.4800     
     84     (1,3,4)               913.24000     
     85     (1,3,5)               456.62000     
     86     (1,3,6)               228.31000     
     87     (1,3,7)               114.15500     
     88     (1,3,8)               114.15500     
     89     (1,3,9)               114.15500     
     90     (1,3,10)              114.15500     
     91     (1,3,11)              114.15500     
     92     (1,3,12)              114.15500     
     93     (1,3,13)              114.15500     
     94     (1,3,14)              114.15500     
     95     (1,3,15)              114.15500     
     96     (1,3,16)              114.15500     
     97     (1,3,17)              114.15500     
     98     (1,3,18)              114.15500     
     99     (1,3,19)              114.15500     
    100     (1,3,20)              114.15500     
    101     (1,3,21)              114.15500     
    102     (1,3,22)              114.15500     
    103     (1,3,23)              114.15500     
    104     (1,3,24)              114.15500     
    105     (1,3,25)              114.15500     
    106     (1,3,26)              114.15500     
    107     (1,3,27)              114.15500     
    108     (1,3,28)              114.15500     
    109     (1,3,29)              114.15500     
    110     (1,3,30)              114.15500     
    111     (1,3,31)              114.15500     
    112     (1,3,32)              114.15500     
    113     (1,3,33)              114.15500     
    114     (1,3,34)              114.15500     
    115     (1,3,35)              228.31000     
    116     (1,3,36)              456.62000     
    117     (1,3,37)              913.24000     
    118     (1,3,38)              1826.4800     
    119     (1,3,39)              3652.9600     
    120     (1,3,40)              0.0000000     
    121     (1,4,1)               0.0000000     
    122     (1,4,2)               2922.3680     
    123     (1,4,3)               1461.1840     
    124     (1,4,4)               730.59200     
    125     (1,4,5)               365.29600     
    126     (1,4,6)               182.64800     
    127     (1,4,7)               91.324000     
    128     (1,4,8)               91.324000     
    129     (1,4,9)               91.324000     
    130     (1,4,10)              91.324000     
    131     (1,4,11)              91.324000     
    132     (1,4,12)              91.324000     
    133     (1,4,13)              91.324000     
    134     (1,4,14)              91.324000     
    135     (1,4,15)              91.324000     
    136     (1,4,16)              91.324000     
    137     (1,4,17)              91.324000     
    138     (1,4,18)              91.324000     
    139     (1,4,19)              91.324000     
    140     (1,4,20)              91.324000     
    141     (1,4,21)              91.324000     
    142     (1,4,22)              91.324000     
    143     (1,4,23)              91.324000     
    144     (1,4,24)              91.324000     
    145     (1,4,25)              91.324000     
    146     (1,4,26)              91.324000     
    147     (1,4,27)              91.324000     
    148     (1,4,28)              91.324000     
    149     (1,4,29)              91.324000     
    150     (1,4,30)              91.324000     
    151     (1,4,31)              91.324000     
    152     (1,4,32)              91.324000     
    153     (1,4,33)              91.324000     
    154     (1,4,34)              91.324000     
    155     (1,4,35)              182.64800     
    156     (1,4,36)              365.29600     
    157     (1,4,37)              730.59200     
    158     (1,4,38)              1461.1840     
    159     (1,4,39)              2922.3680     
    160     (1,4,40)              0.0000000     
    161     (1,5,1)               0.0000000     
    162     (1,5,2)               1461.1840     
    163     (1,5,3)               730.59200     
    164     (1,5,4)               365.29600     
    165     (1,5,5)               182.64800     
    166     (1,5,6)               91.324000     
    167     (1,5,7)               45.662000     
    168     (1,5,8)               45.662000     
    169     (1,5,9)               45.662000     
    170     (1,5,10)              45.662000     
    171     (1,5,11)              45.662000     
    172     (1,5,12)              45.662000     
    173     (1,5,13)              45.662000     
    174     (1,5,14)              45.662000     
    175     (1,5,15)              45.662000     
    176     (1,5,16)              45.662000     
    177     (1,5,17)              45.662000     
    178     (1,5,18)              45.662000     
    179     (1,5,19)              45.662000     
    180     (1,5,20)              45.662000     
    181     (1,5,21)              45.662000     
    182     (1,5,22)              45.662000     
    183     (1,5,23)              45.662000     
    184     (1,5,24)              45.662000     
    185     (1,5,25)              45.662000     
    186     (1,5,26)              45.662000     
    187     (1,5,27)              45.662000     
    188     (1,5,28)              45.662000     
    189     (1,5,29)              45.662000     
    190     (1,5,30)              45.662000     
    191     (1,5,31)              45.662000     
    192     (1,5,32)              45.662000     
    193     (1,5,33)              45.662000     
    194     (1,5,34)              45.662000     
    195     (1,5,35)              91.324000     
    196     (1,5,36)              182.64800     
    197     (1,5,37)              365.29600     
    198     (1,5,38)              730.59200     
    199     (1,5,39)              1461.1840     
    200     (1,5,40)              0.0000000     
    201     (1,6,1)               0.0000000     
    202     (1,6,2)               730.59200     
    203     (1,6,3)               365.29600     
    204     (1,6,4)               182.64800     
    205     (1,6,5)               91.324000     
    206     (1,6,6)               45.662000     
    207     (1,6,7)               22.831000     
    208     (1,6,8)               22.831000     
    209     (1,6,9)               22.831000     
    210     (1,6,10)              22.831000     
    211     (1,6,11)              22.831000     
    212     (1,6,12)              22.831000     
    213     (1,6,13)              22.831000     
    214     (1,6,14)              22.831000     
    215     (1,6,15)              22.831000     
    216     (1,6,16)              22.831000     
    217     (1,6,17)              22.831000     
    218     (1,6,18)              22.831000     
    219     (1,6,19)              22.831000     
    220     (1,6,20)              22.831000     
    221     (1,6,21)              22.831000     
    222     (1,6,22)              22.831000     
    223     (1,6,23)              22.831000     
    224     (1,6,24)              22.831000     
    225     (1,6,25)              22.831000     
    226     (1,6,26)              22.831000     
    227     (1,6,27)              22.831000     
    228     (1,6,28)              22.831000     
    229     (1,6,29)              22.831000     
    230     (1,6,30)              22.831000     
    231     (1,6,31)              22.831000     
    232     (1,6,32)              22.831000     
    233     (1,6,33)              22.831000     
    234     (1,6,34)              22.831000     
    235     (1,6,35)              45.662000     
    236     (1,6,36)              91.324000     
    237     (1,6,37)              182.64800     
    238     (1,6,38)              365.29600     
    239     (1,6,39)              730.59200     
    240     (1,6,40)              0.0000000     
    241     (1,7,1)               0.0000000     
    242     (1,7,2)               365.29600     
    243     (1,7,3)               182.64800     
    244     (1,7,4)               91.324000     
    245     (1,7,5)               45.662000     
    246     (1,7,6)               22.831000     
    247     (1,7,7)               11.415500     
    248     (1,7,8)               11.415500     
    249     (1,7,9)               11.415500     
    250     (1,7,10)              11.415500     
    251     (1,7,11)              11.415500     
    252     (1,7,12)              11.415500     
    253     (1,7,13)              11.415500     
    254     (1,7,14)              11.415500     
    255     (1,7,15)              11.415500     
    256     (1,7,16)              11.415500     
    257     (1,7,17)              11.415500     
    258     (1,7,18)              11.415500     
    259     (1,7,19)              11.415500     
    260     (1,7,20)              11.415500     
    261     (1,7,21)              11.415500     
    262     (1,7,22)              11.415500     
    263     (1,7,23)              11.415500     
    264     (1,7,24)              11.415500     
    265     (1,7,25)              11.415500     
    266     (1,7,26)              11.415500     
    267     (1,7,27)              11.415500     
    268     (1,7,28)              11.415500     
    269     (1,7,29)              11.415500     
    270     (1,7,30)              11.415500     
    271     (1,7,31)              11.415500     
    272     (1,7,32)              11.415500     
    273     (1,7,33)              11.415500     
    274     (1,7,34)              11.415500     
    275     (1,7,35)              22.831000     
    276     (1,7,36)              45.662000     
    277     (1,7,37)              91.324000     
    278     (1,7,38)              182.64800     
    279     (1,7,39)              365.29600     
    280     (1,7,40)              0.0000000     
    281     (1,8,1)               0.0000000     
    282     (1,8,2)               182.64800     
    283     (1,8,3)               91.324000     
    284     (1,8,4)               45.662000     
    285     (1,8,5)               22.831000     
    286     (1,8,6)               11.415500     
    287     (1,8,7)               5.7077500     
    288     (1,8,8)               5.7077500     
    289     (1,8,9)               5.7077500     
    290     (1,8,10)              5.7077500     
    291     (1,8,11)              5.7077500     
    292     (1,8,12)              5.7077500     
    293     (1,8,13)              5.7077500     
    294     (1,8,14)              5.7077500     
    295     (1,8,15)              5.7077500     
    296     (1,8,16)              5.7077500     
    297     (1,8,17)              5.7077500     
    298     (1,8,18)              5.7077500     
    299     (1,8,19)              5.7077500     
    300     (1,8,20)              5.7077500     
    301     (1,8,21)              5.7077500     
    302     (1,8,22)              5.7077500     
    303     (1,8,23)              5.7077500     
    304     (1,8,24)              5.7077500     
    305     (1,8,25)              5.7077500     
    306     (1,8,26)              5.7077500     
    307     (1,8,27)              5.7077500     
    308     (1,8,28)              5.7077500     
    309     (1,8,29)              5.7077500     
    310     (1,8,30)              5.7077500     
    311     (1,8,31)              5.7077500     
    312     (1,8,32)              5.7077500     
    313     (1,8,33)              5.7077500     
    314     (1,8,34)              5.7077500     
    315     (1,8,35)              11.415500     
    316     (1,8,36)              22.831000     
    317     (1,8,37)              45.662000     
    318     (1,8,38)              91.324000     
    319     (1,8,39)              182.64800     
    320     (1,8,40)              0.0000000     
    321     (1,9,1)               0.0000000     
    322     (1,9,2)               91.324000     
    323     (1,9,3)               45.662000     
    324     (1,9,4)               22.831000     
    325     (1,9,5)               11.415500     
    326     (1,9,6)               5.7077500     
    355     (1,9,35)              5.7077500     
    356     (1,9,36)              11.415500     
    357     (1,9,37)              22.831000     
    358     (1,9,38)              45.662000     
    359     (1,9,39)              91.324000     
    360     (1,9,40)              0.0000000     
    361     (1,10,1)              0.0000000     
    362     (1,10,2)              91.324000     
    363     (1,10,3)              45.662000     
    364     (1,10,4)              22.831000     
    365     (1,10,5)              11.415500     
    366     (1,10,6)              5.7077500     
    395     (1,10,35)             5.7077500     
    396     (1,10,36)             11.415500     
    397     (1,10,37)             22.831000     
    398     (1,10,38)             45.662000     
    399     (1,10,39)             91.324000     
    400     (1,10,40)             0.0000000     
    401     (1,11,1)              0.0000000     
    402     (1,11,2)              91.324000     
    403     (1,11,3)              45.662000     
    404     (1,11,4)              22.831000     
    405     (1,11,5)              11.415500     
    406     (1,11,6)              5.7077500     
    435     (1,11,35)             5.7077500     
    436     (1,11,36)             11.415500     
    437     (1,11,37)             22.831000     
    438     (1,11,38)             45.662000     
    439     (1,11,39)             91.324000     
    440     (1,11,40)             0.0000000     
    441     (1,12,1)              0.0000000     
    442     (1,12,2)              91.324000     
    443     (1,12,3)              45.662000     
    444     (1,12,4)              22.831000     
    445     (1,12,5)              11.415500     
    446     (1,12,6)              5.7077500     
    475     (1,12,35)             5.7077500     
    476     (1,12,36)             11.415500     
    477     (1,12,37)             22.831000     
    478     (1,12,38)             45.662000     
    479     (1,12,39)             91.324000     
    480     (1,12,40)             0.0000000     
    481     (1,13,1)              0.0000000     
    482     (1,13,2)              91.324000     
    483     (1,13,3)              45.662000     
    484     (1,13,4)              22.831000     
    485     (1,13,5)              11.415500     
    486     (1,13,6)              5.7077500     
    515     (1,13,35)             5.7077500     
    516     (1,13,36)             11.415500     
    517     (1,13,37)             22.831000     
    518     (1,13,38)             45.662000     
    519     (1,13,39)             91.324000     
    520     (1,13,40)             0.0000000     
    521     (1,14,1)              0.0000000     
    522     (1,14,2)              91.324000     
    523     (1,14,3)              45.662000     
    524     (1,14,4)              22.831000     
    525     (1,14,5)              11.415500     
    526     (1,14,6)              5.7077500     
    555     (1,14,35)             5.7077500     
    556     (1,14,36)             11.415500     
    557     (1,14,37)             22.831000     
    558     (1,14,38)             45.662000     
    559     (1,14,39)             91.324000     
    560     (1,14,40)             0.0000000     
    561     (1,15,1)              0.0000000     
    562     (1,15,2)              91.324000     
    563     (1,15,3)              45.662000     
    564     (1,15,4)              22.831000     
    565     (1,15,5)              11.415500     
    566     (1,15,6)              5.7077500     
    595     (1,15,35)             5.7077500     
    596     (1,15,36)             11.415500     
    597     (1,15,37)             22.831000     
    598     (1,15,38)             45.662000     
    599     (1,15,39)             91.324000     
    600     (1,15,40)             0.0000000     
    601     (1,16,1)              0.0000000     
    602     (1,16,2)              91.324000     
    603     (1,16,3)              45.662000     
    604     (1,16,4)              22.831000     
    605     (1,16,5)              11.415500     
    606     (1,16,6)              5.7077500     
    635     (1,16,35)             5.7077500     
    636     (1,16,36)             11.415500     
    637     (1,16,37)             22.831000     
    638     (1,16,38)             45.662000     
    639     (1,16,39)             91.324000     
    640     (1,16,40)             0.0000000     
    641     (1,17,1)              0.0000000     
    642     (1,17,2)              91.324000     
    643     (1,17,3)              45.662000     
    644     (1,17,4)              22.831000     
    645     (1,17,5)              11.415500     
    646     (1,17,6)              5.7077500     
    675     (1,17,35)             5.7077500     
    676     (1,17,36)             11.415500     
    677     (1,17,37)             22.831000     
    678     (1,17,38)             45.662000     
    679     (1,17,39)             91.324000     
    680     (1,17,40)             0.0000000     
    681     (1,18,1)              0.0000000     
    682     (1,18,2)              91.324000     
    683     (1,18,3)              45.662000     
    684     (1,18,4)              22.831000     
    685     (1,18,5)              11.415500     
    686     (1,18,6)              5.7077500     
    715     (1,18,35)             5.7077500     
    716     (1,18,36)             11.415500     
    717     (1,18,37)             22.831000     
    718     (1,18,38)             45.662000     
    719     (1,18,39)             91.324000     
    720     (1,18,40)             0.0000000     
    721     (1,19,1)              0.0000000     
    722     (1,19,2)              91.324000     
    723     (1,19,3)              45.662000     
    724     (1,19,4)              22.831000     
    725     (1,19,5)              11.415500     
    726     (1,19,6)              5.7077500     
    755     (1,19,35)             5.7077500     
    756     (1,19,36)             11.415500     
    757     (1,19,37)             22.831000     
    758     (1,19,38)             45.662000     
    759     (1,19,39)             91.324000     
    760     (1,19,40)             0.0000000     
    761     (1,20,1)              0.0000000     
    762     (1,20,2)              91.324000     
    763     (1,20,3)              45.662000     
    764     (1,20,4)              22.831000     
    765     (1,20,5)              11.415500     
    766     (1,20,6)              5.7077500     
    795     (1,20,35)             5.7077500     
    796     (1,20,36)             11.415500     
    797     (1,20,37)             22.831000     
    798     (1,20,38)             45.662000     
    799     (1,20,39)             91.324000     
    800     (1,20,40)             0.0000000     
    801     (1,21,1)              0.0000000     
    802     (1,21,2)              91.324000     
    803     (1,21,3)              45.662000     
    804     (1,21,4)              22.831000     
    805     (1,21,5)              11.415500     
    806     (1,21,6)              5.7077500     
    835     (1,21,35)             5.7077500     
    836     (1,21,36)             11.415500     
    837     (1,21,37)             22.831000     
    838     (1,21,38)             45.662000     
    839     (1,21,39)             91.324000     
    840     (1,21,40)             0.0000000     
    841     (1,22,1)              0.0000000     
    842     (1,22,2)              91.324000     
    843     (1,22,3)              45.662000     
    844     (1,22,4)              22.831000     
    845     (1,22,5)              11.415500     
    846     (1,22,6)              5.7077500     
    875     (1,22,35)             5.7077500     
    876     (1,22,36)             11.415500     
    877     (1,22,37)             22.831000     
    878     (1,22,38)             45.662000     
    879     (1,22,39)             91.324000     
    880     (1,22,40)             0.0000000     
    881     (1,23,1)              0.0000000     
    882     (1,23,2)              91.324000     
    883     (1,23,3)              45.662000     
    884     (1,23,4)              22.831000     
    885     (1,23,5)              11.415500     
    886     (1,23,6)              5.7077500     
    915     (1,23,35)             5.7077500     
    916     (1,23,36)             11.415500     
    917     (1,23,37)             22.831000     
    918     (1,23,38)             45.662000     
    919     (1,23,39)             91.324000     
    920     (1,23,40)             0.0000000     
    921     (1,24,1)              0.0000000     
    922     (1,24,2)              91.324000     
    923     (1,24,3)              45.662000     
    924     (1,24,4)              22.831000     
    925     (1,24,5)              11.415500     
    926     (1,24,6)              5.7077500     
    955     (1,24,35)             5.7077500     
    956     (1,24,36)             11.415500     
    957     (1,24,37)             22.831000     
    958     (1,24,38)             45.662000     
    959     (1,24,39)             91.324000     
    960     (1,24,40)             0.0000000     
    961     (1,25,1)              0.0000000     
    962     (1,25,2)              91.324000     
    963     (1,25,3)              45.662000     
    964     (1,25,4)              22.831000     
    965     (1,25,5)              11.415500     
    966     (1,25,6)              5.7077500     
    995     (1,25,35)             5.7077500     
    996     (1,25,36)             11.415500     
    997     (1,25,37)             22.831000     
    998     (1,25,38)             45.662000     
    999     (1,25,39)             91.324000     
    1000    (1,25,40)             0.0000000     
    1001    (1,26,1)              0.0000000     
    1002    (1,26,2)              91.324000     
    1003    (1,26,3)              45.662000     
    1004    (1,26,4)              22.831000     
    1005    (1,26,5)              11.415500     
    1006    (1,26,6)              5.7077500     
    1035    (1,26,35)             5.7077500     
    1036    (1,26,36)             11.415500     
    1037    (1,26,37)             22.831000     
    1038    (1,26,38)             45.662000     
    1039    (1,26,39)             91.324000     
    1040    (1,26,40)             0.0000000     
    1041    (1,27,1)              0.0000000     
    1042    (1,27,2)              91.324000     
    1043    (1,27,3)              45.662000     
    1044    (1,27,4)              22.831000     
    1045    (1,27,5)              11.415500     
    1046    (1,27,6)              5.7077500     
    1075    (1,27,35)             5.7077500     
    1076    (1,27,36)             11.415500     
    1077    (1,27,37)             22.831000     
    1078    (1,27,38)             45.662000     
    1079    (1,27,39)             91.324000     
    1080    (1,27,40)             0.0000000     
    1081    (1,28,1)              0.0000000     
    1082    (1,28,2)              91.324000     
    1083    (1,28,3)              45.662000     
    1084    (1,28,4)              22.831000     
    1085    (1,28,5)              11.415500     
    1086    (1,28,6)              5.7077500     
    1115    (1,28,35)             5.7077500     
    1116    (1,28,36)             11.415500     
    1117    (1,28,37)             22.831000     
    1118    (1,28,38)             45.662000     
    1119    (1,28,39)             91.324000     
    1120    (1,28,40)             0.0000000     
    1121    (1,29,1)              0.0000000     
    1122    (1,29,2)              91.324000     
    1123    (1,29,3)              45.662000     
    1124    (1,29,4)              22.831000     
    1125    (1,29,5)              11.415500     
    1126    (1,29,6)              5.7077500     
    1155    (1,29,35)             5.7077500     
    1156    (1,29,36)             11.415500     
    1157    (1,29,37)             22.831000     
    1158    (1,29,38)             45.662000     
    1159    (1,29,39)             91.324000     
    1160    (1,29,40)             0.0000000     
    1161    (1,30,1)              0.0000000     
    1162    (1,30,2)              91.324000     
    1163    (1,30,3)              45.662000     
    1164    (1,30,4)              22.831000     
    1165    (1,30,5)              11.415500     
    1166    (1,30,6)              5.7077500     
    1195    (1,30,35)             5.7077500     
    1196    (1,30,36)             11.415500     
    1197    (1,30,37)             22.831000     
    1198    (1,30,38)             45.662000     
    1199    (1,30,39)             91.324000     
    1200    (1,30,40)             0.0000000     
    1201    (1,31,1)              0.0000000     
    1202    (1,31,2)              91.324000     
    1203    (1,31,3)              45.662000     
    1204    (1,31,4)              22.831000     
    1205    (1,31,5)              11.415500     
    1206    (1,31,6)              5.7077500     
    1235    (1,31,35)             5.7077500     
    1236    (1,31,36)             11.415500     
    1237    (1,31,37)             22.831000     
    1238    (1,31,38)             45.662000     
    1239    (1,31,39)             91.324000     
    1240    (1,31,40)             0.0000000     
    1241    (1,32,1)              0.0000000     
    1242    (1,32,2)              91.324000     
    1243    (1,32,3)              45.662000     
    1244    (1,32,4)              22.831000     
    1245    (1,32,5)              11.415500     
    1246    (1,32,6)              5.7077500     
    1275    (1,32,35)             5.7077500     
    1276    (1,32,36)             11.415500     
    1277    (1,32,37)             22.831000     
    1278    (1,32,38)             45.662000     
    1279    (1,32,39)             91.324000     
    1280    (1,32,40)             0.0000000     
    1281    (1,33,1)              0.0000000     
    1282    (1,33,2)              91.324000     
    1283    (1,33,3)              45.662000     
    1284    (1,33,4)              22.831000     
    1285    (1,33,5)              11.415500     
    1286    (1,33,6)              5.7077500     
    1315    (1,33,35)             5.7077500     
    1316    (1,33,36)             11.415500     
    1317    (1,33,37)             22.831000     
    1318    (1,33,38)             45.662000     
    1319    (1,33,39)             91.324000     
    1320    (1,33,40)             0.0000000     
    1321    (1,34,1)              0.0000000     
    1322    (1,34,2)              91.324000     
    1323    (1,34,3)              45.662000     
    1324    (1,34,4)              22.831000     
    1325    (1,34,5)              11.415500     
    1326    (1,34,6)              5.7077500     
    1355    (1,34,35)             5.7077500     
    1356    (1,34,36)             11.415500     
    1357    (1,34,37)             22.831000     
    1358    (1,34,38)             45.662000     
    1359    (1,34,39)             91.324000     
    1360    (1,34,40)             0.0000000     
    1361    (1,35,1)              0.0000000     
    1362    (1,35,2)              91.324000     
    1363    (1,35,3)              45.662000     
    1364    (1,35,4)              22.831000     
    1365    (1,35,5)              11.415500     
    1366    (1,35,6)              5.7077500     
    1395    (1,35,35)             5.7077500     
    1396    (1,35,36)             11.415500     
    1397    (1,35,37)             22.831000     
    1398    (1,35,38)             45.662000     
    1399    (1,35,39)             91.324000     
    1400    (1,35,40)             0.0000000     
    1401    (1,36,1)              0.0000000     
    1402    (1,36,2)              91.324000     
    1403    (1,36,3)              45.662000     
    1404    (1,36,4)              22.831000     
    1405    (1,36,5)              11.415500     
    1406    (1,36,6)              5.7077500     
    1435    (1,36,35)             5.7077500     
    1436    (1,36,36)             11.415500     
    1437    (1,36,37)             22.831000     
    1438    (1,36,38)             45.662000     
    1439    (1,36,39)             91.324000     
    1440    (1,36,40)             0.0000000     
    1441    (1,37,1)              0.0000000     
    1442    (1,37,2)              91.324000     
    1443    (1,37,3)              45.662000     
    1444    (1,37,4)              22.831000     
    1445    (1,37,5)              11.415500     
    1446    (1,37,6)              5.7077500     
    1475    (1,37,35)             5.7077500     
    1476    (1,37,36)             11.415500     
    1477    (1,37,37)             22.831000     
    1478    (1,37,38)             45.662000     
    1479    (1,37,39)             91.324000     
    1480    (1,37,40)             0.0000000     
    1481    (1,38,1)              0.0000000     
    1482    (1,38,2)              91.324000     
    1483    (1,38,3)              45.662000     
    1484    (1,38,4)              22.831000     
    1485    (1,38,5)              11.415500     
    1486    (1,38,6)              5.7077500     
    1515    (1,38,35)             5.7077500     
    1516    (1,38,36)             11.415500     
    1517    (1,38,37)             22.831000     
    1518    (1,38,38)             45.662000     
    1519    (1,38,39)             91.324000     
    1520    (1,38,40)             0.0000000     
    1521    (1,39,1)              0.0000000     
    1522    (1,39,2)              91.324000     
    1523    (1,39,3)              45.662000     
    1524    (1,39,4)              22.831000     
    1525    (1,39,5)              11.415500     
    1526    (1,39,6)              5.7077500     
    1555    (1,39,35)             5.7077500     
    1556    (1,39,36)             11.415500     
    1557    (1,39,37)             22.831000     
    1558    (1,39,38)             45.662000     
    1559    (1,39,39)             91.324000     
    1560    (1,39,40)             0.0000000     
    1561    (1,40,1)              0.0000000     
    1562    (1,40,2)              91.324000     
    1563    (1,40,3)              45.662000     
    1564    (1,40,4)              22.831000     
    1565    (1,40,5)              11.415500     
    1566    (1,40,6)              5.7077500     
    1595    (1,40,35)             5.7077500     
    1596    (1,40,36)             11.415500     
    1597    (1,40,37)             22.831000     
    1598    (1,40,38)             45.662000     
    1599    (1,40,39)             91.324000     
    1600    (1,40,40)             0.0000000     
    1601    (1,41,1)              0.0000000     
    1602    (1,41,2)              91.324000     
    1603    (1,41,3)              45.662000     
    1604    (1,41,4)              22.831000     
    1605    (1,41,5)              11.415500     
    1606    (1,41,6)              5.7077500     
    1635    (1,41,35)             5.7077500     
    1636    (1,41,36)             11.415500     
    1637    (1,41,37)             22.831000     
    1638    (1,41,38)             45.662000     
    1639    (1,41,39)             91.324000     
    1640    (1,41,40)             0.0000000     
    1641    (1,42,1)              0.0000000     
    1642    (1,42,2)              91.324000     
    1643    (1,42,3)              45.662000     
    1644    (1,42,4)              22.831000     
    1645    (1,42,5)              11.415500     
    1646    (1,42,6)              5.7077500     
    1675    (1,42,35)             5.7077500     
    1676    (1,42,36)             11.415500     
    1677    (1,42,37)             22.831000     
    1678    (1,42,38)             45.662000     
    1679    (1,42,39)             91.324000     
    1680    (1,42,40)             0.0000000     
    1681    (1,43,1)              0.0000000     
    1682    (1,43,2)              91.324000     
    1683    (1,43,3)              45.662000     
    1684    (1,43,4)              22.831000     
    1685    (1,43,5)              11.415500     
    1686    (1,43,6)              5.7077500     
    1715    (1,43,35)             5.7077500     
    1716    (1,43,36)             11.415500     
    1717    (1,43,37)             22.831000     
    1718    (1,43,38)             45.662000     
    1719    (1,43,39)             91.324000     
    1720    (1,43,40)             0.0000000     
    1721    (1,44,1)              0.0000000     
    1722    (1,44,2)              91.324000     
    1723    (1,44,3)              45.662000     
    1724    (1,44,4)              22.831000     
    1725    (1,44,5)              11.415500     
    1726    (1,44,6)              5.7077500     
    1755    (1,44,35)             5.7077500     
    1756    (1,44,36)             11.415500     
    1757    (1,44,37)             22.831000     
    1758    (1,44,38)             45.662000     
    1759    (1,44,39)             91.324000     
    1760    (1,44,40)             0.0000000     
    1761    (1,45,1)              0.0000000     
    1762    (1,45,2)              91.324000     
    1763    (1,45,3)              45.662000     
    1764    (1,45,4)              22.831000     
    1765    (1,45,5)              11.415500     
    1766    (1,45,6)              5.7077500     
    1795    (1,45,35)             5.7077500     
    1796    (1,45,36)             11.415500     
    1797    (1,45,37)             22.831000     
    1798    (1,45,38)             45.662000     
    1799    (1,45,39)             91.324000     
    1800    (1,45,40)             0.0000000     
    1801    (1,46,1)              0.0000000     
    1802    (1,46,2)              91.324000     
    1803    (1,46,3)              45.662000     
    1804    (1,46,4)              22.831000     
    1805    (1,46,5)              11.415500     
    1806    (1,46,6)              5.7077500     
    1835    (1,46,35)             5.7077500     
    1836    (1,46,36)             11.415500     
    1837    (1,46,37)             22.831000     
    1838    (1,46,38)             45.662000     
    1839    (1,46,39)             91.324000     
    1840    (1,46,40)             0.0000000     
    1841    (1,47,1)              0.0000000     
    1842    (1,47,2)              91.324000     
    1843    (1,47,3)              45.662000     
    1844    (1,47,4)              22.831000     
    1845    (1,47,5)              11.415500     
    1846    (1,47,6)              5.7077500     
    1875    (1,47,35)             5.7077500     
    1876    (1,47,36)             11.415500     
    1877    (1,47,37)             22.831000     
    1878    (1,47,38)             45.662000     
    1879    (1,47,39)             91.324000     
    1880    (1,47,40)             0.0000000     
    1881    (1,48,1)              0.0000000     
    1882    (1,48,2)              91.324000     
    1883    (1,48,3)              45.662000     
    1884    (1,48,4)              22.831000     
    1885    (1,48,5)              11.415500     
    1886    (1,48,6)              5.7077500     
    1915    (1,48,35)             5.7077500     
    1916    (1,48,36)             11.415500     
    1917    (1,48,37)             22.831000     
    1918    (1,48,38)             45.662000     
    1919    (1,48,39)             91.324000     
    1920    (1,48,40)             0.0000000     
    1921    (1,49,1)              0.0000000     
    1922    (1,49,2)              91.324000     
    1923    (1,49,3)              45.662000     
    1924    (1,49,4)              22.831000     
    1925    (1,49,5)              11.415500     
    1926    (1,49,6)              5.7077500     
    1955    (1,49,35)             5.7077500     
    1956    (1,49,36)             11.415500     
    1957    (1,49,37)             22.831000     
    1958    (1,49,38)             45.662000     
    1959    (1,49,39)             91.324000     
    1960    (1,49,40)             0.0000000     
    1961    (1,50,1)              0.0000000     
    1962    (1,50,2)              91.324000     
    1963    (1,50,3)              45.662000     
    1964    (1,50,4)              22.831000     
    1965    (1,50,5)              11.415500     
    1966    (1,50,6)              5.7077500     
    1995    (1,50,35)             5.7077500     
    1996    (1,50,36)             11.415500     
    1997    (1,50,37)             22.831000     
    1998    (1,50,38)             45.662000     
    1999    (1,50,39)             91.324000     
    2000    (1,50,40)             0.0000000     
    2001    (1,51,1)              0.0000000     
    2002    (1,51,2)              91.324000     
    2003    (1,51,3)              45.662000     
    2004    (1,51,4)              22.831000     
    2005    (1,51,5)              11.415500     
    2006    (1,51,6)              5.7077500     
    2035    (1,51,35)             5.7077500     
    2036    (1,51,36)             11.415500     
    2037    (1,51,37)             22.831000     
    2038    (1,51,38)             45.662000     
    2039    (1,51,39)             91.324000     
    2040    (1,51,40)             0.0000000     
    2041    (1,52,1)              0.0000000     
    2042    (1,52,2)              91.324000     
    2043    (1,52,3)              45.662000     
    2044    (1,52,4)              22.831000     
    2045    (1,52,5)              11.415500     
    2046    (1,52,6)              5.7077500     
    2075    (1,52,35)             5.7077500     
    2076    (1,52,36)             11.415500     
    2077    (1,52,37)             22.831000     
    2078    (1,52,38)             45.662000     
    2079    (1,52,39)             91.324000     
    2080    (1,52,40)             0.0000000     
    2081    (1,53,1)              0.0000000     
    2082    (1,53,2)              91.324000     
    2083    (1,53,3)              45.662000     
    2084    (1,53,4)              22.831000     
    2085    (1,53,5)              11.415500     
    2086    (1,53,6)              5.7077500     
    2115    (1,53,35)             5.7077500     
    2116    (1,53,36)             11.415500     
    2117    (1,53,37)             22.831000     
    2118    (1,53,38)             45.662000     
    2119    (1,53,39)             91.324000     
    2120    (1,53,40)             0.0000000     
    2121    (1,54,1)              0.0000000     
    2122    (1,54,2)              182.64800     
    2123    (1,54,3)              91.324000     
    2124    (1,54,4)              45.662000     
    2125    (1,54,5)              22.831000     
    2126    (1,54,6)              11.415500     
    2127    (1,54,7)              5.7077500     
    2128    (1,54,8)              5.7077500     
    2129    (1,54,9)              5.7077500     
    2130    (1,54,10)             5.7077500     
    2131    (1,54,11)             5.7077500     
    2132    (1,54,12)             5.7077500     
    2133    (1,54,13)             5.7077500     
    2134    (1,54,14)             5.7077500     
    2135    (1,54,15)             5.7077500     
    2136    (1,54,16)             5.7077500     
    2137    (1,54,17)             5.7077500     
    2138    (1,54,18)             5.7077500     
    2139    (1,54,19)             5.7077500     
    2140    (1,54,20)             5.7077500     
    2141    (1,54,21)             5.7077500     
    2142    (1,54,22)             5.7077500     
    2143    (1,54,23)             5.7077500     
    2144    (1,54,24)             5.7077500     
    2145    (1,54,25)             5.7077500     
    2146    (1,54,26)             5.7077500     
    2147    (1,54,27)             5.7077500     
    2148    (1,54,28)             5.7077500     
    2149    (1,54,29)             5.7077500     
    2150    (1,54,30)             5.7077500     
    2151    (1,54,31)             5.7077500     
    2152    (1,54,32)             5.7077500     
    2153    (1,54,33)             5.7077500     
    2154    (1,54,34)             5.7077500     
    2155    (1,54,35)             11.415500     
    2156    (1,54,36)             22.831000     
    2157    (1,54,37)             45.662000     
    2158    (1,54,38)             91.324000     
    2159    (1,54,39)             182.64800     
    2160    (1,54,40)             0.0000000     
    2161    (1,55,1)              0.0000000     
    2162    (1,55,2)              365.29600     
    2163    (1,55,3)              182.64800     
    2164    (1,55,4)              91.324000     
    2165    (1,55,5)              45.662000     
    2166    (1,55,6)              22.831000     
    2167    (1,55,7)              11.415500     
    2168    (1,55,8)              11.415500     
    2169    (1,55,9)              11.415500     
    2170    (1,55,10)             11.415500     
    2171    (1,55,11)             11.415500     
    2172    (1,55,12)             11.415500     
    2173    (1,55,13)             11.415500     
    2174    (1,55,14)             11.415500     
    2175    (1,55,15)             11.415500     
    2176    (1,55,16)             11.415500     
    2177    (1,55,17)             11.415500     
    2178    (1,55,18)             11.415500     
    2179    (1,55,19)             11.415500     
    2180    (1,55,20)             11.415500     
    2181    (1,55,21)             11.415500     
    2182    (1,55,22)             11.415500     
    2183    (1,55,23)             11.415500     
    2184    (1,55,24)             11.415500     
    2185    (1,55,25)             11.415500     
    2186    (1,55,26)             11.415500     
    2187    (1,55,27)             11.415500     
    2188    (1,55,28)             11.415500     
    2189    (1,55,29)             11.415500     
    2190    (1,55,30)             11.415500     
    2191    (1,55,31)             11.415500     
    2192    (1,55,32)             11.415500     
    2193    (1,55,33)             11.415500     
    2194    (1,55,34)             11.415500     
    2195    (1,55,35)             22.831000     
    2196    (1,55,36)             45.662000     
    2197    (1,55,37)             91.324000     
    2198    (1,55,38)             182.64800     
    2199    (1,55,39)             365.29600     
    2200    (1,55,40)             0.0000000     
    2201    (1,56,1)              0.0000000     
    2202    (1,56,2)              730.59200     
    2203    (1,56,3)              365.29600     
    2204    (1,56,4)              182.64800     
    2205    (1,56,5)              91.324000     
    2206    (1,56,6)              45.662000     
    2207    (1,56,7)              22.831000     
    2208    (1,56,8)              22.831000     
    2209    (1,56,9)              22.831000     
    2210    (1,56,10)             22.831000     
    2211    (1,56,11)             22.831000     
    2212    (1,56,12)             22.831000     
    2213    (1,56,13)             22.831000     
    2214    (1,56,14)             22.831000     
    2215    (1,56,15)             22.831000     
    2216    (1,56,16)             22.831000     
    2217    (1,56,17)             22.831000     
    2218    (1,56,18)             22.831000     
    2219    (1,56,19)             22.831000     
    2220    (1,56,20)             22.831000     
    2221    (1,56,21)             22.831000     
    2222    (1,56,22)             22.831000     
    2223    (1,56,23)             22.831000     
    2224    (1,56,24)             22.831000     
    2225    (1,56,25)             22.831000     
    2226    (1,56,26)             22.831000     
    2227    (1,56,27)             22.831000     
    2228    (1,56,28)             22.831000     
    2229    (1,56,29)             22.831000     
    2230    (1,56,30)             22.831000     
    2231    (1,56,31)             22.831000     
    2232    (1,56,32)             22.831000     
    2233    (1,56,33)             22.831000     
    2234    (1,56,34)             22.831000     
    2235    (1,56,35)             45.662000     
    2236    (1,56,36)             91.324000     
    2237    (1,56,37)             182.64800     
    2238    (1,56,38)             365.29600     
    2239    (1,56,39)             730.59200     
    2240    (1,56,40)             0.0000000     
    2241    (1,57,1)              0.0000000     
    2242    (1,57,2)              1461.1840     
    2243    (1,57,3)              730.59200     
    2244    (1,57,4)              365.29600     
    2245    (1,57,5)              182.64800     
    2246    (1,57,6)              91.324000     
    2247    (1,57,7)              45.662000     
    2248    (1,57,8)              45.662000     
    2249    (1,57,9)              45.662000     
    2250    (1,57,10)             45.662000     
    2251    (1,57,11)             45.662000     
    2252    (1,57,12)             45.662000     
    2253    (1,57,13)             45.662000     
    2254    (1,57,14)             45.662000     
    2255    (1,57,15)             45.662000     
    2256    (1,57,16)             45.662000     
    2257    (1,57,17)             45.662000     
    2258    (1,57,18)             45.662000     
    2259    (1,57,19)             45.662000     
    2260    (1,57,20)             45.662000     
    2261    (1,57,21)             45.662000     
    2262    (1,57,22)             45.662000     
    2263    (1,57,23)             45.662000     
    2264    (1,57,24)             45.662000     
    2265    (1,57,25)             45.662000     
    2266    (1,57,26)             45.662000     
    2267    (1,57,27)             45.662000     
    2268    (1,57,28)             45.662000     
    2269    (1,57,29)             45.662000     
    2270    (1,57,30)             45.662000     
    2271    (1,57,31)             45.662000     
    2272    (1,57,32)             45.662000     
    2273    (1,57,33)             45.662000     
    2274    (1,57,34)             45.662000     
    2275    (1,57,35)             91.324000     
    2276    (1,57,36)             182.64800     
    2277    (1,57,37)             365.29600     
    2278    (1,57,38)             730.59200     
    2279    (1,57,39)             1461.1840     
    2280    (1,57,40)             0.0000000     
    2281    (1,58,1)              0.0000000     
    2282    (1,58,2)              2922.3680     
    2283    (1,58,3)              1461.1840     
    2284    (1,58,4)              730.59200     
    2285    (1,58,5)              365.29600     
    2286    (1,58,6)              182.64800     
    2287    (1,58,7)              91.324000     
    2288    (1,58,8)              91.324000     
    2289    (1,58,9)              91.324000     
    2290    (1,58,10)             91.324000     
    2291    (1,58,11)             91.324000     
    2292    (1,58,12)             91.324000     
    2293    (1,58,13)             91.324000     
    2294    (1,58,14)             91.324000     
    2295    (1,58,15)             91.324000     
    2296    (1,58,16)             91.324000     
    2297    (1,58,17)             91.324000     
    2298    (1,58,18)             91.324000     
    2299    (1,58,19)             91.324000     
    2300    (1,58,20)             91.324000     
    2301    (1,58,21)             91.324000     
    2302    (1,58,22)             91.324000     
    2303    (1,58,23)             91.324000     
    2304    (1,58,24)             91.324000     
    2305    (1,58,25)             91.324000     
    2306    (1,58,26)             91.324000     
    2307    (1,58,27)             91.324000     
    2308    (1,58,28)             91.324000     
    2309    (1,58,29)             91.324000     
    2310    (1,58,30)             91.324000     
    2311    (1,58,31)             91.324000     
    2312    (1,58,32)             91.324000     
    2313    (1,58,33)             91.324000     
    2314    (1,58,34)             91.324000     
    2315    (1,58,35)             182.64800     
    2316    (1,58,36)             365.29600     
    2317    (1,58,37)             730.59200     
    2318    (1,58,38)             1461.1840     
    2319    (1,58,39)             2922.3680     
    2320    (1,58,40)             0.0000000     
    2321    (1,59,1)              0.0000000     
    2322    (1,59,2)              3652.9600     
    2323    (1,59,3)              1826.4800     
    2324    (1,59,4)              913.24000     
    2325    (1,59,5)              456.62000     
    2326    (1,59,6)              228.31000     
    2327    (1,59,7)              114.15500     
    2328    (1,59,8)              114.15500     
    2329    (1,59,9)              114.15500     
    2330    (1,59,10)             114.15500     
    2331    (1,59,11)             114.15500     
    2332    (1,59,12)             114.15500     
    2333    (1,59,13)             114.15500     
    2334    (1,59,14)             114.15500     
    2335    (1,59,15)             114.15500     
    2336    (1,59,16)             114.15500     
    2337    (1,59,17)             114.15500     
    2338    (1,59,18)             114.15500     
    2339    (1,59,19)             114.15500     
    2340    (1,59,20)             114.15500     
    2341    (1,59,21)             114.15500     
    2342    (1,59,22)             114.15500     
    2343    (1,59,23)             114.15500     
    2344    (1,59,24)             114.15500     
    2345    (1,59,25)             114.15500     
    2346    (1,59,26)             114.15500     
    2347    (1,59,27)             114.15500     
    2348    (1,59,28)             114.15500     
    2349    (1,59,29)             114.15500     
    2350    (1,59,30)             114.15500     
    2351    (1,59,31)             114.15500     
    2352    (1,59,32)             114.15500     
    2353    (1,59,33)             114.15500     
    2354    (1,59,34)             114.15500     
    2355    (1,59,35)             228.31000     
    2356    (1,59,36)             456.62000     
    2357    (1,59,37)             913.24000     
    2358    (1,59,38)             1826.4800     
    2359    (1,59,39)             3652.9600     
    2360    (1,59,40)             0.0000000     
    2361    (1,60,1)              0.0000000     
    2362    (1,60,2)              3652.9600     
    2363    (1,60,3)              1826.4800     
    2364    (1,60,4)              913.24000     
    2365    (1,60,5)              456.62000     
    2366    (1,60,6)              228.31000     
    2367    (1,60,7)              114.15500     
    2368    (1,60,8)              114.15500     
    2369    (1,60,9)              114.15500     
    2370    (1,60,10)             114.15500     
    2371    (1,60,11)             114.15500     
    2372    (1,60,12)             114.15500     
    2373    (1,60,13)             114.15500     
    2374    (1,60,14)             114.15500     
    2375    (1,60,15)             114.15500     
    2376    (1,60,16)             114.15500     
    2377    (1,60,17)             114.15500     
    2378    (1,60,18)             114.15500     
    2379    (1,60,19)             114.15500     
    2380    (1,60,20)             114.15500     
    2381    (1,60,21)             114.15500     
    2382    (1,60,22)             114.15500     
    2383    (1,60,23)             114.15500     
    2384    (1,60,24)             114.15500     
    2385    (1,60,25)             114.15500     
    2386    (1,60,26)             114.15500     
    2387    (1,60,27)             114.15500     
    2388    (1,60,28)             114.15500     
    2389    (1,60,29)             114.15500     
    2390    (1,60,30)             114.15500     
    2391    (1,60,31)             114.15500     
    2392    (1,60,32)             114.15500     
    2393    (1,60,33)             114.15500     
    2394    (1,60,34)             114.15500     
    2395    (1,60,35)             228.31000     
    2396    (1,60,36)             456.62000     
    2397    (1,60,37)             913.24000     
    2398    (1,60,38)             1826.4800     
    2399    (1,60,39)             3652.9600     
    2400    (1,60,40)             0.0000000     
    2401    (1,61,1)              0.0000000     
    2402    (1,61,2)              0.0000000     
    2403    (1,61,3)              0.0000000     
    2404    (1,61,4)              0.0000000     
    2405    (1,61,5)              0.0000000     
    2406    (1,61,6)              0.0000000     
    2407    (1,61,7)              0.0000000     
    2408    (1,61,8)              0.0000000     
    2409    (1,61,9)              0.0000000     
    2410    (1,61,10)             0.0000000     
    2411    (1,61,11)             0.0000000     
    2412    (1,61,12)             0.0000000     
    2413    (1,61,13)             0.0000000     
    2414    (1,61,14)             0.0000000     
    2415    (1,61,15)             0.0000000     
    2416    (1,61,16)             0.0000000     
    2417    (1,61,17)             0.0000000     
    2418    (1,61,18)             0.0000000     
    2419    (1,61,19)             0.0000000     
    2420    (1,61,20)             0.0000000     
    2421    (1,61,21)             0.0000000     
    2422    (1,61,22)             0.0000000     
    2423    (1,61,23)             0.0000000     
    2424    (1,61,24)             0.0000000     
    2425    (1,61,25)             0.0000000     
    2426    (1,61,26)             0.0000000     
    2427    (1,61,27)             0.0000000     
    2428    (1,61,28)             0.0000000     
    2429    (1,61,29)             0.0000000     
    2430    (1,61,30)             0.0000000     
    2431    (1,61,31)             0.0000000     
    2432    (1,61,32)             0.0000000     
    2433    (1,61,33)             0.0000000     
    2434    (1,61,34)             0.0000000     
    2435    (1,61,35)             0.0000000     
    2436    (1,61,36)             0.0000000     
    2437    (1,61,37)             0.0000000     
    2438    (1,61,38)             0.0000000     
    2439    (1,61,39)             0.0000000     
    2440    (1,61,40)             0.0000000     
 -----------------------------------------------




 HEAD WILL BE SAVED ON UNIT 1049 AT END OF TIME STEP    1, STRESS PERIOD    1


  VOLUME BUDGET FOR ENTIRE MODEL AT END OF TIME STEP    1, STRESS PERIOD   1
  ---------------------------------------------------------------------------------------------------

     CUMULATIVE VOLUME      L**3       RATES FOR THIS TIME STEP      L**3/T          PACKAGE NAME    
     ------------------                 ------------------------                     ----------------

           IN:                                      IN:
           ---                                      ---
              STO-SS =           0.0000                STO-SS =           0.0000     STORAGE                          
                RCHA =      278241.3970                  RCHA =      139120.6985     RCH-1                            
                 CHD =      895715.4700                   CHD =      447857.7350     CHD-1                            
        FLOW-JA-FACE =       27131.3429          FLOW-JA-FACE =       13565.6715     GWF-GWF_1                        
    FLOW-JA-FACE-CHD =           0.0000      FLOW-JA-FACE-CHD =           0.0000     GWF-GWF_1                        

            TOTAL IN =     1201088.2100              TOTAL IN =      600544.1050

          OUT:                                     OUT:
          ----                                     ----
              STO-SS =           0.0000                STO-SS =           0.0000     STORAGE                          
                RCHA =           0.0000                  RCHA =           0.0000     RCH-1                            
                 CHD =      885006.6320                   CHD =      442503.3160     CHD-1                            
        FLOW-JA-FACE =      316081.5779          FLOW-JA-FACE =      158040.7890     GWF-GWF_1                        
    FLOW-JA-FACE-CHD =           0.0000      FLOW-JA-FACE-CHD =           0.0000     GWF-GWF_1                        

           TOTAL OUT =     1201088.2100             TOTAL OUT =      600544.1050

            IN - OUT =       2.2989E-05              IN - OUT =       1.1494E-05

 PERCENT DISCREPANCY =           0.00     PERCENT DISCREPANCY =           0.00




         TIME SUMMARY AT END OF TIME STEP    1 IN STRESS PERIOD    1
                    SECONDS     MINUTES      HOURS       DAYS        YEARS
                    -----------------------------------------------------------
   TIME STEP LENGTH 1.72800E+05  2880.0      48.000      2.0000     5.47570E-03
 STRESS PERIOD TIME 1.72800E+05  2880.0      48.000      2.0000     5.47570E-03
         TOTAL TIME 1.72800E+05  2880.0      48.000      2.0000     5.47570E-03


end timestep


start timestep kper="1" kstp="2" mode="normal"


end timestep


start timestep kper="1" kstp="3" mode="normal"


end timestep


start timestep kper="1" kstp="4" mode="normal"


end timestep


start timestep kper="1" kstp="5" mode="normal"


end timestep


start timestep kper="1" kstp="6" mode="normal"


end timestep


start timestep kper="1" kstp="7" mode="normal"


end timestep


start timestep kper="1" kstp="8" mode="normal"


end timestep


start timestep kper="1" kstp="9" mode="normal"


end timestep


start timestep kper="1" kstp="10" mode="normal"


end timestep


start timestep kper="1" kstp="11" mode="normal"


end timestep


start timestep kper="1" kstp="12" mode="normal"


end timestep


start timestep kper="1" kstp="13" mode="normal"


end timestep


start timestep kper="1" kstp="14" mode="normal"


end timestep


start timestep kper="1" kstp="15" mode="normal"


end timestep


start timestep kper="1" kstp="16" mode="normal"


end timestep


start timestep kper="1" kstp="17" mode="normal"


end timestep


start timestep kper="1" kstp="18" mode="normal"


end timestep


start timestep kper="1" kstp="19" mode="normal"


end timestep


start timestep kper="1" kstp="20" mode="normal"


end timestep


start timestep kper="1" kstp="21" mode="normal"


end timestep


start timestep kper="1" kstp="22" mode="normal"


end timestep


start timestep kper="1" kstp="23" mode="normal"


end timestep


start timestep kper="1" kstp="24" mode="normal"


end timestep


start timestep kper="1" kstp="25" mode="normal"


end timestep


start timestep kper="1" kstp="26" mode="normal"


end timestep


start timestep kper="1" kstp="27" mode="normal"


end timestep


start timestep kper="1" kstp="28" mode="normal"


end timestep


start timestep kper="1" kstp="29" mode="normal"


end timestep


start timestep kper="1" kstp="30" mode="normal"


end timestep


start timestep kper="1" kstp="31" mode="normal"


end timestep


start timestep kper="1" kstp="32" mode="normal"


end timestep


start timestep kper="1" kstp="33" mode="normal"


end timestep


start timestep kper="1" kstp="34" mode="normal"


end timestep


start timestep kper="1" kstp="35" mode="normal"


end timestep


start timestep kper="1" kstp="36" mode="normal"


end timestep


start timestep kper="1" kstp="37" mode="normal"


end timestep


start timestep kper="1" kstp="38" mode="normal"


end timestep


start timestep kper="1" kstp="39" mode="normal"


end timestep


start timestep kper="1" kstp="40" mode="normal"


end timestep


start timestep kper="1" kstp="41" mode="normal"


end timestep


start timestep kper="1" kstp="42" mode="normal"


end timestep


start timestep kper="1" kstp="43" mode="normal"


end timestep


start timestep kper="1" kstp="44" mode="normal"


end timestep


start timestep kper="1" kstp="45" mode="normal"


end timestep


start timestep kper="1" kstp="46" mode="normal"


end timestep


start timestep kper="1" kstp="47" mode="normal"


end timestep


start timestep kper="1" kstp="48" mode="normal"


end timestep


start timestep kper="1" kstp="49" mode="normal"


end timestep


start timestep kper="1" kstp="50" mode="normal"


end timestep


start timestep kper="1" kstp="51" mode="normal"


end timestep


start timestep kper="1" kstp="52" mode="normal"


end timestep


start timestep kper="1" kstp="53" mode="normal"


end timestep


start timestep kper="1" kstp="54" mode="normal"


end timestep


start timestep kper="1" kstp="55" mode="normal"


end timestep


start timestep kper="1" kstp="56" mode="normal"


end timestep


start timestep kper="1" kstp="57" mode="normal"


end timestep


start timestep kper="1" kstp="58" mode="normal"


end timestep


start timestep kper="1" kstp="59" mode="normal"


end timestep


start timestep kper="1" kstp="60" mode="normal"


end timestep


start timestep kper="1" kstp="61" mode="normal"


end timestep


start timestep kper="1" kstp="62" mode="normal"


end timestep


start timestep kper="1" kstp="63" mode="normal"


end timestep


start timestep kper="1" kstp="64" mode="normal"


end timestep


start timestep kper="1" kstp="65" mode="normal"


end timestep


start timestep kper="1" kstp="66" mode="normal"


end timestep


start timestep kper="1" kstp="67" mode="normal"


end timestep


start timestep kper="1" kstp="68" mode="normal"


end timestep


start timestep kper="1" kstp="69" mode="normal"


end timestep


start timestep kper="1" kstp="70" mode="normal"


end timestep


start timestep kper="1" kstp="71" mode="normal"


end timestep


start timestep kper="1" kstp="72" mode="normal"


end timestep


start timestep kper="1" kstp="73" mode="normal"


end timestep


start timestep kper="1" kstp="74" mode="normal"


end timestep


start timestep kper="1" kstp="75" mode="normal"


end timestep


start timestep kper="1" kstp="76" mode="normal"


end timestep


start timestep kper="1" kstp="77" mode="normal"


end timestep


start timestep kper="1" kstp="78" mode="normal"


end timestep


start timestep kper="1" kstp="79" mode="normal"


end timestep


start timestep kper="1" kstp="80" mode="normal"


end timestep


start timestep kper="1" kstp="81" mode="normal"


end timestep


start timestep kper="1" kstp="82" mode="normal"


end timestep


start timestep kper="1" kstp="83" mode="normal"


end timestep


start timestep kper="1" kstp="84" mode="normal"


end timestep


start timestep kper="1" kstp="85" mode="normal"


end timestep


start timestep kper="1" kstp="86" mode="normal"


end timestep


start timestep kper="1" kstp="87" mode="normal"


end timestep


start timestep kper="1" kstp="88" mode="normal"


end timestep


start timestep kper="1" kstp="89" mode="normal"


end timestep


start timestep kper="1" kstp="90" mode="normal"


end timestep


start timestep kper="1" kstp="91" mode="normal"


end timestep


start timestep kper="1" kstp="92" mode="normal"


end timestep


start timestep kper="1" kstp="93" mode="normal"


end timestep


start timestep kper="1" kstp="94" mode="normal"


end timestep


start timestep kper="1" kstp="95" mode="normal"


end timestep


start timestep kper="1" kstp="96" mode="normal"


end timestep


start timestep kper="1" kstp="97" mode="normal"


end timestep


start timestep kper="1" kstp="98" mode="normal"


end timestep


start timestep kper="1" kstp="99" mode="normal"


end timestep


start timestep kper="1" kstp="100" mode="normal"


end timestep


start timestep kper="1" kstp="101" mode="normal"


end timestep


start timestep kper="1" kstp="102" mode="normal"


end timestep


start timestep kper="1" kstp="103" mode="normal"


end timestep


start timestep kper="1" kstp="104" mode="normal"


end timestep


start timestep kper="1" kstp="105" mode="normal"


end timestep


start timestep kper="1" kstp="106" mode="normal"


end timestep


start timestep kper="1" kstp="107" mode="normal"


end timestep


start timestep kper="1" kstp="108" mode="normal"


end timestep


start timestep kper="1" kstp="109" mode="normal"


end timestep


start timestep kper="1" kstp="110" mode="normal"


end timestep


start timestep kper="1" kstp="111" mode="normal"


end timestep


start timestep kper="1" kstp="112" mode="normal"


end timestep


start timestep kper="1" kstp="113" mode="normal"


end timestep


start timestep kper="1" kstp="114" mode="normal"


end timestep


start timestep kper="1" kstp="115" mode="normal"


end timestep


start timestep kper="1" kstp="116" mode="normal"


end timestep


start timestep kper="1" kstp="117" mode="normal"


end timestep


start timestep kper="1" kstp="118" mode="normal"


end timestep


start timestep kper="1" kstp="119" mode="normal"


end timestep


start timestep kper="1" kstp="120" mode="normal"


end timestep


start timestep kper="1" kstp="121" mode="normal"


end timestep


start timestep kper="1" kstp="122" mode="normal"


end timestep


start timestep kper="1" kstp="123" mode="normal"


end timestep


start timestep kper="1" kstp="124" mode="normal"


end timestep


start timestep kper="1" kstp="125" mode="normal"


end timestep


start timestep kper="1" kstp="126" mode="normal"


end timestep


start timestep kper="1" kstp="127" mode="normal"


end timestep


start timestep kper="1" kstp="128" mode="normal"


end timestep


start timestep kper="1" kstp="129" mode="normal"


end timestep


start timestep kper="1" kstp="130" mode="normal"


end timestep


start timestep kper="1" kstp="131" mode="normal"


end timestep


start timestep kper="1" kstp="132" mode="normal"


end timestep


start timestep kper="1" kstp="133" mode="normal"


end timestep


start timestep kper="1" kstp="134" mode="normal"


end timestep


start timestep kper="1" kstp="135" mode="normal"


end timestep


start timestep kper="1" kstp="136" mode="normal"


end timestep


start timestep kper="1" kstp="137" mode="normal"


end timestep


start timestep kper="1" kstp="138" mode="normal"


end timestep


start timestep kper="1" kstp="139" mode="normal"


end timestep


start timestep kper="1" kstp="140" mode="normal"


end timestep


start timestep kper="1" kstp="141" mode="normal"


end timestep


start timestep kper="1" kstp="142" mode="normal"


end timestep


start timestep kper="1" kstp="143" mode="normal"


end timestep


start timestep kper="1" kstp="144" mode="normal"


end timestep


start timestep kper="1" kstp="145" mode="normal"


end timestep


start timestep kper="1" kstp="146" mode="normal"


end timestep


start timestep kper="1" kstp="147" mode="normal"


end timestep


start timestep kper="1" kstp="148" mode="normal"


end timestep


start timestep kper="1" kstp="149" mode="normal"


end timestep


start timestep kper="1" kstp="150" mode="normal"


end timestep


start timestep kper="1" kstp="151" mode="normal"


end timestep


start timestep kper="1" kstp="152" mode="normal"


end timestep


start timestep kper="1" kstp="153" mode="normal"


end timestep


start timestep kper="1" kstp="154" mode="normal"


end timestep


start timestep kper="1" kstp="155" mode="normal"


end timestep


start timestep kper="1" kstp="156" mode="normal"


end timestep


start timestep kper="1" kstp="157" mode="normal"


end timestep


start timestep kper="1" kstp="158" mode="normal"


end timestep


start timestep kper="1" kstp="159" mode="normal"


end timestep


start timestep kper="1" kstp="160" mode="normal"


end timestep


start timestep kper="1" kstp="161" mode="normal"


end timestep


start timestep kper="1" kstp="162" mode="normal"


end timestep


start timestep kper="1" kstp="163" mode="normal"


end timestep


start timestep kper="1" kstp="164" mode="normal"


end timestep


start timestep kper="1" kstp="165" mode="normal"


end timestep


start timestep kper="1" kstp="166" mode="normal"


end timestep


start timestep kper="1" kstp="167" mode="normal"


end timestep


start timestep kper="1" kstp="168" mode="normal"


end timestep


start timestep kper="1" kstp="169" mode="normal"


end timestep


start timestep kper="1" kstp="170" mode="normal"


end timestep


start timestep kper="1" kstp="171" mode="normal"


end timestep


start timestep kper="1" kstp="172" mode="normal"


end timestep


start timestep kper="1" kstp="173" mode="normal"


end timestep


start timestep kper="1" kstp="174" mode="normal"


end timestep


start timestep kper="1" kstp="175" mode="normal"


end timestep


start timestep kper="1" kstp="176" mode="normal"


end timestep


start timestep kper="1" kstp="177" mode="normal"


end timestep


start timestep kper="1" kstp="178" mode="normal"


end timestep


start timestep kper="1" kstp="179" mode="normal"


end timestep


start timestep kper="1" kstp="180" mode="normal"


end timestep


start timestep kper="1" kstp="181" mode="normal"


end timestep


start timestep kper="1" kstp="182" mode="normal"


end timestep


start timestep kper="1" kstp="183" mode="normal"


end timestep


start timestep kper="1" kstp="184" mode="normal"


end timestep


start timestep kper="1" kstp="185" mode="normal"


end timestep


start timestep kper="1" kstp="186" mode="normal"


end timestep


start timestep kper="1" kstp="187" mode="normal"


end timestep


start timestep kper="1" kstp="188" mode="normal"


end timestep


[...]
    178     (4,51,6)             -300.75319     
    179     (4,52,6)             -229.34745     
    180     (4,53,6)             -171.27300     
    181     (1,9,35)             -77.519564     
    182     (1,10,35)            -80.995466     
    183     (1,11,35)            -83.535003     
    184     (1,12,35)            -84.923515     
    185     (1,13,35)            -85.386992     
    186     (1,14,35)            -85.368750     
    187     (1,15,35)            -85.256883     
    188     (1,16,35)            -85.262224     
    189     (1,17,35)            -85.422357     
    190     (1,18,35)            -85.662507     
    191     (1,19,35)            -85.869464     
    192     (1,20,35)            -85.954472     
    193     (1,21,35)            -85.885754     
    194     (1,22,35)            -85.682132     
    195     (1,23,35)            -85.385448     
    196     (1,24,35)            -85.034721     
    197     (1,25,35)            -84.653451     
    198     (1,26,35)            -84.249725     
    199     (1,27,35)            -83.823076     
    200     (1,28,35)            -83.371737     
    201     (1,29,35)            -82.896574     
    202     (1,30,35)            -82.401357     
    203     (1,31,35)            -81.891024     
    204     (1,32,35)            -81.369832     
    205     (1,33,35)            -80.840424     
    206     (1,34,35)            -80.303881     
    207     (1,35,35)            -79.760312     
    208     (1,36,35)            -79.209442     
    209     (1,37,35)            -78.650916     
    210     (1,38,35)            -78.084281     
    211     (1,39,35)            -77.508798     
    212     (1,40,35)            -76.923223     
    213     (1,41,35)            -76.325657     
    214     (1,42,35)            -75.713483     
    215     (1,43,35)            -75.083378     
    216     (1,44,35)            -74.431368     
    217     (1,45,35)            -73.752932     
    218     (1,46,35)            -73.043166     
    219     (1,47,35)            -72.297038     
    220     (1,48,35)            -71.509743     
    221     (1,49,35)            -70.677134     
    222     (1,50,35)            -69.796214     
    223     (1,51,35)            -68.865593     
    224     (1,52,35)            -67.885864     
    225     (1,53,35)            -66.859800     
    226     (2,9,35)             -79.504746     
    227     (2,10,35)            -83.513343     
    228     (2,11,35)            -86.296279     
    229     (2,12,35)            -87.456183     
    230     (2,13,35)            -87.411190     
    231     (2,14,35)            -86.862166     
    232     (2,15,35)            -86.337792     
    233     (2,16,35)            -86.077073     
    234     (2,17,35)            -86.087800     
    235     (2,18,35)            -86.247549     
    236     (2,19,35)            -86.399231     
    237     (2,20,35)            -86.426585     
    238     (2,21,35)            -86.291298     
    239     (2,22,35)            -86.018518     
    240     (2,23,35)            -85.658627     
    241     (2,24,35)            -85.255581     
    242     (2,25,35)            -84.833433     
    243     (2,26,35)            -84.398128     
    244     (2,27,35)            -83.946391     
    245     (2,28,35)            -83.474291     
    246     (2,29,35)            -82.981513     
    247     (2,30,35)            -82.471338     
    248     (2,31,35)            -81.948492     
    249     (2,32,35)            -81.417019     
    250     (2,33,35)            -80.879258     
    251     (2,34,35)            -80.335939     
    252     (2,35,35)            -79.786838     
    253     (2,36,35)            -79.231416     
    254     (2,37,35)            -78.669126     
    255     (2,38,35)            -78.099383     
    256     (2,39,35)            -77.521351     
    257     (2,40,35)            -76.933704     
    258     (2,41,35)            -76.334474     
    259     (2,42,35)            -75.720984     
    260     (2,43,35)            -75.089856     
    261     (2,44,35)            -74.437072     
    262     (2,45,35)            -73.758069     
    263     (2,46,35)            -73.047907     
    264     (2,47,35)            -72.301516     
    265     (2,48,35)            -71.514050     
    266     (2,49,35)            -70.681323     
    267     (2,50,35)            -69.800296     
    268     (2,51,35)            -68.869547     
    269     (2,52,35)            -67.889642     
    270     (2,53,35)            -66.863344     
    271     (3,9,35)             -700.30471     
    272     (3,10,35)            -738.21309     
    273     (3,11,35)            -763.90070     
    274     (3,12,35)            -772.49962     
    275     (3,13,35)            -769.10157     
    276     (3,14,35)            -761.35023     
    277     (3,15,35)            -754.53912     
    278     (3,16,35)            -750.82647     
    279     (3,17,35)            -750.09291     
    280     (3,18,35)            -751.01819     
    281     (3,19,35)            -752.00716     
    282     (3,20,35)            -751.90485     
    283     (3,21,35)            -750.34491     
    284     (3,22,35)            -747.57923     
    285     (3,23,35)            -744.09019     
    286     (3,24,35)            -740.28602     
    287     (3,25,35)            -736.37941     
    288     (3,26,35)            -732.41127     
    289     (3,27,35)            -728.33845     
    290     (3,28,35)            -724.11510     
    291     (3,29,35)            -719.73183     
    292     (3,30,35)            -715.21423     
    293     (3,31,35)            -710.60201     
    294     (3,32,35)            -705.92895     
    295     (3,33,35)            -701.21355     
    296     (3,34,35)            -696.46003     
    297     (3,35,35)            -691.66443     
    298     (3,36,35)            -686.82044     
    299     (3,37,35)            -681.92210     
    300     (3,38,35)            -676.96351     
    301     (3,39,35)            -671.93677     
    302     (3,40,35)            -666.82989     
    303     (3,41,35)            -661.62534     
    304     (3,42,35)            -656.29953     
    305     (3,43,35)            -650.82283     
    306     (3,44,35)            -645.16012     
    307     (3,45,35)            -639.27159     
    308     (3,46,35)            -633.11416     
    309     (3,47,35)            -626.64365     
    310     (3,48,35)            -619.81777     
    311     (3,49,35)            -612.59998     
    312     (3,50,35)            -604.96368     
    313     (3,51,35)            -596.89630     
    314     (3,52,35)            -588.40259     
    315     (3,53,35)            -579.50641     
    316     (4,9,35)             -694.63020     
    317     (4,10,35)            -729.94942     
    318     (4,11,35)            -754.27362     
    319     (4,12,35)            -764.34837     
    320     (4,13,35)            -763.64382     
    321     (4,14,35)            -758.25269     
    322     (4,15,35)            -752.96639     
    323     (4,16,35)            -750.05120     
    324     (4,17,35)            -749.65153     
    325     (4,18,35)            -750.68023     
    326     (4,19,35)            -751.70667     
    327     (4,20,35)            -751.66309     
    328     (4,21,35)            -750.18997     
    329     (4,22,35)            -747.51174     
    330     (4,23,35)            -744.08875     
    331     (4,24,35)            -740.32360     
    332     (4,25,35)            -736.43437     
    333     (4,26,35)            -732.47062     
    334     (4,27,35)            -728.39620     
    335     (4,28,35)            -724.16915     
    336     (4,29,35)            -719.78153     
    337     (4,30,35)            -715.25926     
    338     (4,31,35)            -710.64214     
    339     (4,32,35)            -705.96415     
    340     (4,33,35)            -701.24401     
    341     (4,34,35)            -696.48614     
    342     (4,35,35)            -691.68669     
    343     (4,36,35)            -686.83934     
    344     (4,37,35)            -681.93812     
    345     (4,38,35)            -676.97706     
    346     (4,39,35)            -671.94823     
    347     (4,40,35)            -666.83960     
    348     (4,41,35)            -661.63361     
    349     (4,42,35)            -656.30663     
    350     (4,43,35)            -650.82902     
    351     (4,44,35)            -645.16560     
    352     (4,45,35)            -639.27655     
    353     (4,46,35)            -633.11874     
    354     (4,47,35)            -626.64797     
    355     (4,48,35)            -619.82192     
    356     (4,49,35)            -612.60400     
    357     (4,50,35)            -604.96757     
    358     (4,51,35)            -596.90006     
    359     (4,52,35)            -588.40618     
    360     (4,53,35)            -579.50977     
    361     (1,8,7)              -105.75268     
    362     (1,8,8)              -106.71860     
    363     (1,8,9)              -107.72411     
    364     (1,8,10)             -108.77193     
    365     (1,8,11)             -109.86516     
    366     (1,8,12)             -111.00734     
    367     (1,8,13)             -112.20250     
    368     (1,8,14)             -113.45529     
    369     (1,8,15)             -114.77110     
    370     (1,8,16)             -116.15622     
    371     (1,8,17)             -117.61827     
    372     (1,8,18)             -119.16693     
    373     (1,8,19)             -120.81539     
    374     (1,8,20)             -122.58331     
    375     (1,8,21)             -124.50210     
    376     (1,8,22)             -126.62382     
    377     (1,8,23)             -129.03359     
    378     (1,8,24)             -131.86062     
    379     (1,8,25)             -135.26881     
    380     (1,8,26)             -139.37532     
    381     (1,8,27)             -143.99699     
    382     (1,8,28)             -148.13146     
    383     (1,8,29)             -149.46415     
    384     (1,8,30)             -145.56667     
    385     (1,8,31)             -138.99954     
    386     (1,8,32)             -132.19012     
    387     (1,8,33)             -126.21968     
    388     (1,8,34)             -121.31006     
    389     (2,8,7)              -105.75301     
    390     (2,8,8)              -106.71910     
    391     (2,8,9)              -107.72488     
    392     (2,8,10)             -108.77312     
    393     (2,8,11)             -109.86701     
    394     (2,8,12)             -111.01022     
    395     (2,8,13)             -112.20699     
    396     (2,8,14)             -113.46231     
    397     (2,8,15)             -114.78209     
    398     (2,8,16)             -116.17350     
    399     (2,8,17)             -117.64562     
    400     (2,8,18)             -119.21067     
    401     (2,8,19)             -120.88648     
    402     (2,8,20)             -122.70166     
    403     (2,8,21)             -124.70567     
    404     (2,8,22)             -126.98849     
    405     (2,8,23)             -129.71603     
    406     (2,8,24)             -133.18793     
    407     (2,8,25)             -137.90951     
    408     (2,8,26)             -144.60349     
    409     (2,8,27)             -153.87341     
    410     (2,8,28)             -164.76377     
    411     (2,8,29)             -171.38426     
    412     (2,8,30)             -162.16645     
    413     (2,8,31)             -148.81753     
    414     (2,8,32)             -137.34667     
    415     (2,8,33)             -128.79367     
    416     (2,8,34)             -122.60039     
    417     (3,8,7)              -916.52829     
    418     (3,8,8)              -924.90221     
    419     (3,8,9)              -933.62082     
    420     (3,8,10)             -942.70850     
    421     (3,8,11)             -952.19337     
    422     (3,8,12)             -962.10813     
    423     (3,8,13)             -972.49105     
    424     (3,8,14)             -983.38749     
    425     (3,8,15)             -994.85212     
    426     (3,8,16)             -1006.9527     
    427     (3,8,17)             -1019.7768     
    428     (3,8,18)             -1033.4456     
    429     (3,8,19)             -1048.1403     
    430     (3,8,20)             -1064.1582     
    431     (3,8,21)             -1082.0251     
    432     (3,8,22)             -1102.7238     
    433     (3,8,23)             -1128.1406     
    434     (3,8,24)             -1161.8988     
    435     (3,8,25)             -1210.7600     
    436     (3,8,26)             -1286.3351     
    437     (3,8,27)             -1404.3861     
    438     (3,8,28)             -1569.4889     
    439     (3,8,29)             -1709.0720     
    440     (3,8,30)             -1546.7769     
    441     (3,8,31)             -1360.2040     
    442     (3,8,32)             -1222.9898     
    443     (3,8,33)             -1131.3203     
    444     (3,8,34)             -1069.8681     
    445     (4,8,7)              -916.52862     
    446     (4,8,8)              -924.90270     
    447     (4,8,9)              -933.62157     
    448     (4,8,10)             -942.70965     
    449     (4,8,11)             -952.19515     
    450     (4,8,12)             -962.11086     
    451     (4,8,13)             -972.49521     
    452     (4,8,14)             -983.39377     
    453     (4,8,15)             -994.86143     
    454     (4,8,16)             -1006.9661     
    455     (4,8,17)             -1019.7954     
    456     (4,8,18)             -1033.4686     
    457     (4,8,19)             -1048.1617     
    458     (4,8,20)             -1064.1542     
    459     (4,8,21)             -1081.9205     
    460     (4,8,22)             -1102.2965     
    461     (4,8,23)             -1126.7607     
    462     (4,8,24)             -1157.8371     
    463     (4,8,25)             -1199.4622     
    464     (4,8,26)             -1256.5791     
    465     (4,8,27)             -1331.7517     
    466     (4,8,28)             -1414.1960     
    467     (4,8,29)             -1458.9852     
    468     (4,8,30)             -1391.4884     
    469     (4,8,31)             -1287.5724     
    470     (4,8,32)             -1193.2193     
    471     (4,8,33)             -1119.9548     
    472     (4,8,34)             -1065.5984     
    473     (1,54,7)              24.136283     
    474     (1,54,8)              19.391571     
    475     (1,54,9)              15.052047     
    476     (1,54,10)             11.283734     
    477     (1,54,11)             7.9558612     
    478     (1,54,12)             4.8371592     
    479     (1,54,13)             1.7876018     
    480     (1,54,14)            -1.2468719     
    481     (1,54,15)            -4.3138617     
    482     (1,54,16)            -7.0554333     
    483     (1,54,17)            -7.1853145     
    484     (1,54,18)            -0.28969267    
    485     (1,54,19)             8.5459650     
    486     (1,54,20)             16.462207     
    487     (1,54,21)             22.821059     
    488     (1,54,22)             27.818029     
    489     (1,54,23)             31.798569     
    490     (1,54,24)             35.052403     
    491     (1,54,25)             37.785557     
    492     (1,54,26)             40.137720     
    493     (1,54,27)             42.203284     
    494     (1,54,28)             44.047007     
    495     (1,54,29)             45.714318     
    496     (1,54,30)             47.237839     
    497     (1,54,31)             48.641540     
    498     (1,54,32)             49.943402     
    499     (1,54,33)             51.157176     
    500     (1,54,34)             52.293563     
    501     (2,54,7)              22.338488     
    502     (2,54,8)              17.021958     
    503     (2,54,9)              12.236210     
    504     (2,54,10)             8.2297926     
    505     (2,54,11)             4.6226096     
    506     (2,54,12)             0.82591320    
    507     (2,54,13)            -3.7098254     
    508     (2,54,14)            -9.7850257     
    509     (2,54,15)            -19.100978     
    510     (2,54,16)            -33.531884     
    511     (2,54,17)            -46.867176     
    512     (2,54,18)            -25.625840     
    513     (2,54,19)            -4.1068124     
    514     (2,54,20)             10.700316     
    515     (2,54,21)             20.264833     
    516     (2,54,22)             26.673292     
    517     (2,54,23)             31.270612     
    518     (2,54,24)             34.799149     
    519     (2,54,25)             37.658903     
    520     (2,54,26)             40.071854     
    521     (2,54,27)             42.167847     
    522     (2,54,28)             44.027399     
    523     (2,54,29)             45.703219     
    524     (2,54,30)             47.231441     
    525     (2,54,31)             48.637795     
    526     (2,54,32)             49.941180     
    527     (2,54,33)             51.155838     
    528     (2,54,34)             52.292738     
    529     (3,54,7)              183.31586     
    530     (3,54,8)              133.87107     
    531     (3,54,9)              89.731967     
    532     (3,54,10)             53.845566     
    533     (3,54,11)             21.169479     
    534     (3,54,12)            -15.756436     
    535     (3,54,13)            -65.039903     
    536     (3,54,14)            -142.37376     
    537     (3,54,15)            -290.07140     
    538     (3,54,16)            -596.37508     
    539     (3,54,17)            -1074.9616     
    540     (3,54,18)            -521.41276     
    541     (3,54,19)            -147.91950     
    542     (3,54,20)             51.172028     
    543     (3,54,21)             159.48895     
    544     (3,54,22)             224.41260     
    545     (3,54,23)             267.94977     
    546     (3,54,24)             300.10385     
    547     (3,54,25)             325.61214     
    548     (3,54,26)             346.87970     
    549     (3,54,27)             365.22849     
    550     (3,54,28)             381.44307     
    551     (3,54,29)             396.02117     
    552     (3,54,30)             409.29639     
    553     (3,54,31)             421.50234     
    554     (3,54,32)             432.80852     
    555     (3,54,33)             443.34150     
    556     (3,54,34)             453.19812     
    557     (4,54,7)              187.94873     
    558     (4,54,8)              140.78042     
    559     (4,54,9)              98.242061     
    560     (4,54,10)             62.334614     
    561     (4,54,11)             30.005607     
    562     (4,54,12)            -3.4933618     
    563     (4,54,13)            -42.185079     
    564     (4,54,14)            -90.909885     
    565     (4,54,15)            -159.03490     
    566     (4,54,16)            -253.73503     
    567     (4,54,17)            -327.61335     
    568     (4,54,18)            -182.77259     
    569     (4,54,19)            -24.568542     
    570     (4,54,20)             92.765937     
    571     (4,54,21)             173.03965     
    572     (4,54,22)             228.73195     
    573     (4,54,23)             269.28985     
    574     (4,54,24)             300.49756     
    575     (4,54,25)             325.71302     
    576     (4,54,26)             346.89514     
    577     (4,54,27)             365.22258     
    578     (4,54,28)             381.43434     
    579     (4,54,29)             396.01413     
    580     (4,54,30)             409.29152     
    581     (4,54,31)             421.49918     
    582     (4,54,32)             432.80652     
    583     (4,54,33)             443.34025     
    584     (4,54,34)             453.19733     
 -----------------------------------------------


