                                   MODFLOW 6
                U.S. GEOLOGICAL SURVEY MODULAR HYDROLOGIC MODEL
                             TRANSPORT MODEL (GWT)
                            VERSION 6.6.1 02/10/2025

   MODFLOW 6 compiled Feb 14 2025 13:40:10 with Intel(R) Fortran Intel(R) 64
   Compiler Classic for applications running on Intel(R) 64, Version 2021.7.0
                             Build 20220726_000000

This software has been approved for release by the U.S. Geological 
Survey (USGS). Although the software has been subjected to rigorous 
review, the USGS reserves the right to update the software as needed 
pursuant to further analysis and review. No warranty, expressed or 
implied, is made by the USGS or the U.S. Government as to the 
functionality of the software and related material nor shall the 
fact of release constitute any such warranty. Furthermore, the 
software is released on condition that neither the USGS nor the U.S. 
Government shall be held liable for any damages resulting from its 
authorized or unauthorized use. Also refer to the USGS Water 
Resources Software User Rights Notice for complete use, copyright, 
and distribution information.


As a work of the United States Government, this USGS product is 
in the public domain within the United States. You can copy, 
modify, distribute, and perform the work, even for commercial 
purposes, all without asking permission. Additionally, USGS 
waives copyright and related rights in the work worldwide 
through CC0 1.0 Universal Public Domain Dedication 
(https://creativecommons.org/publicdomain/zero/1.0/).

The following GNU Lesser General Public License (LGPL) libraries
are used in this USGS product:

    SPARSKIT version 2.0
      ilut, luson, and qsplit 
      (https://www-users.cse.umn.edu/~saad/software/SPARSKIT/)

    RCM - Reverse Cuthill McKee Ordering
      (https://people.math.sc.edu/Burkardt/f_src/rcm/rcm.html)

    BLAS - Basic Linear Algebra Subprograms Level 1
      (https://people.math.sc.edu/Burkardt/f_src/blas1_d/blas1_d.html)

    SPARSEKIT - Sparse Matrix Utility Package
      amux, dperm, dvperm, rperm, and cperm
      (https://people.sc.fsu.edu/~jburkardt/f77_src/sparsekit/sparsekit.html)

The following BSD-3 License libraries are used in this USGS product:

    Modern Fortran DAG Library
      Copyright (c) 2018, Jacob Williams
      All rights reserved.
      (https://github.com/jacobwilliams/daglib)

MODFLOW 6 compiler options: /O2 /heap-arrays:0 /fpe:0 /traceback /nologo /fpp
/c /module:win64\mod_mf6\ /object:win64\obj_mf6\

System command used to initiate simulation:
C:\Users\gross.DESKTOP-AIRQM2M\anaconda3\Scripts\mf6.exe

MODFLOW was compiled using uniform precision.

Real Variables
  KIND: 8
  TINY (smallest non-zero value):    2.225074-308
  HUGE (largest value):    1.797693+308
  PRECISION: 15
  SIZE IN BITS: 64

Integer Variables
  KIND: 4
  HUGE (largest value): 2147483647
  SIZE IN BITS: 32

Long Integer Variables
  KIND: 8
  HUGE (largest value): 9223372036854775807
  SIZE IN BITS: 64

Logical Variables
  KIND: 4
  SIZE IN BITS: 32
 
 NAMEFILE OPTIONS:
    FLOWS WILL BE SAVED TO BUDGET FILE SPECIFIED IN OUTPUT CONTROL
 END NAMEFILE OPTIONS:

 DIS -- STRUCTURED GRID DISCRETIZATION PACKAGE, VERSION 2 : 3/27/2014 - INPUT READ FROM MEMPATH: __INPUT__/GWT-INNER/DIS                           


 DSP-- DISPERSION PACKAGE, VERSION 1, 1/24/2018 INPUT READ FROM MEMPATH: __INPUT__/GWT-INNER/DSP                           


 Setting Discretization Options
    XORIGIN = 5100.000000000000
    YORIGIN = 9100.000000000000
 End Setting Discretization Options

 Setting Discretization Dimensions
    NLAY = 4
    NROW = 45
    NCOL = 28
 End Setting Discretization Dimensions

 Setting Discretization Griddata
    DELR set from input file
    DELC set from input file
    TOP set from input file
    BOTM set from input file
    IDOMAIN set from input file
 End Setting Discretization Griddata


 FMI -- FLOW MODEL INTERFACE,' VERSION 2, 8/17/2023
  FLOWS PROVIDED BY A GWF MODEL IN THIS SIMULATION

 ADV-- ADVECTION PACKAGE, VERSION 1, 8/25/2017 INPUT READ FROM UNIT 1033


 # File generated by Flopy version 3.9.1 on 03/05/2025 at 11:31:55.
 PROCESSING ADVECTION OPTIONS
    ADVECTION WEIGHTING SCHEME HAS BEEN SET TO: UPSTREAM
 END OF ADVECTION OPTIONS
 Setting DSP Options
    XT3D formulation [0=INACTIVE, 1=ACTIVE, 3=ACTIVE RHS] set to: 1
 End Setting DSP Options

 Setting DSP Griddata
    ALH set from input file
    ATH1 set from input file
    ATV set from input file
 End Setting DSP Griddata

    STRT set from input file

 MST -- MOBILE STORAGE AND TRANSFER PACKAGE, VERSION 1, 7/29/2020 INPUT READ FROM UNIT 1032


 # File generated by Flopy version 3.9.1 on 03/05/2025 at 11:31:55.
 PROCESSING MOBILE STORAGE AND TRANSFER OPTIONS
    LINEAR SORPTION IS ACTIVE. 
 END OF MOBILE STORAGE AND TRANSFER OPTIONS
 PROCESSING GRIDDATA

   MOBILE DOMAIN POROSITY =  0.3000000    

             BULK DENSITY =   1.700000    

 DISTRIBUTION COEFFICIENT =  0.1760000    
 END PROCESSING GRIDDATA

 SSM -- SOURCE-SINK MIXING PACKAGE, VERSION 1, 8/25/2017 INPUT READ FROM UNIT 1035


 # File generated by Flopy version 3.9.1 on 03/05/2025 at 11:31:55.
 PROCESSING SSM OPTIONS
    SSM FLOW INFORMATION WILL BE PRINTED TO LISTING FILE WHENEVER ICBCFL IS NOT ZERO.
 END OF SSM OPTIONS
 PROCESSING SOURCES
 END PROCESSING SOURCES
 OPTIONAL FILEINPUT BLOCK NOT FOUND.  CONTINUING.
      THE LAST TIME STEP WILL BE PRINTED
      THE LAST TIME STEP WILL BE PRINTED
 # File generated by Flopy version 3.9.1 on 03/05/2025 at 11:31:55.

 PROCESSING OC OPTIONS

    BUDGET INFORMATION WILL BE WRITTEN TO:
      UNIT NUMBER: 1055
      FILE NAME: gwt-inner.cbc

 OPENED gwt-inner.cbc
 FILE TYPE:DATA(BINARY)   UNIT 1055   STATUS:REPLACE             
 FORMAT:UNFORMATTED            ACCESS:STREAM              
 ACTION:READWRITE           

    CONCENTRATION INFORMATION WILL BE WRITTEN TO:
      UNIT NUMBER: 1056
      FILE NAME: gwt-inner.ucn

 OPENED gwt-inner.ucn
 FILE TYPE:DATA(BINARY)   UNIT 1056   STATUS:REPLACE             
 FORMAT:UNFORMATTED            ACCESS:STREAM              
 ACTION:READWRITE           

 END OF OC OPTIONS

start timestep kper="1" kstp="1" mode="normal"


 BEGIN READING OUTPUT CONTROL FOR STRESS PERIOD 1
      THE LAST TIME STEP WILL BE SAVED
      THE FOLLOWING STEPS WILL BE SAVED: 1 250 375 500 
      THE LAST TIME STEP WILL BE SAVED
      THE LAST TIME STEP WILL BE SAVED
      THE LAST TIME STEP WILL BE PRINTED
      THE LAST TIME STEP WILL BE PRINTED

 END READING OUTPUT CONTROL FOR STRESS PERIOD 1

 XT3D is active.



 CONCENTRATION WILL BE SAVED ON UNIT 1056 AT END OF TIME STEP    1, STRESS PERIOD    1

end timestep


start timestep kper="1" kstp="2" mode="normal"


end timestep


start timestep kper="1" kstp="3" mode="normal"


end timestep


start timestep kper="1" kstp="4" mode="normal"


end timestep


start timestep kper="1" kstp="5" mode="normal"


end timestep


start timestep kper="1" kstp="6" mode="normal"


end timestep


start timestep kper="1" kstp="7" mode="normal"


end timestep


start timestep kper="1" kstp="8" mode="normal"


end timestep


start timestep kper="1" kstp="9" mode="normal"


end timestep


start timestep kper="1" kstp="10" mode="normal"


end timestep


start timestep kper="1" kstp="11" mode="normal"


end timestep


start timestep kper="1" kstp="12" mode="normal"


end timestep


start timestep kper="1" kstp="13" mode="normal"


end timestep


start timestep kper="1" kstp="14" mode="normal"


end timestep


start timestep kper="1" kstp="15" mode="normal"


end timestep


start timestep kper="1" kstp="16" mode="normal"


end timestep


start timestep kper="1" kstp="17" mode="normal"


end timestep


start timestep kper="1" kstp="18" mode="normal"


end timestep


start timestep kper="1" kstp="19" mode="normal"


end timestep


start timestep kper="1" kstp="20" mode="normal"


end timestep


start timestep kper="1" kstp="21" mode="normal"


end timestep


start timestep kper="1" kstp="22" mode="normal"


end timestep


start timestep kper="1" kstp="23" mode="normal"


end timestep


start timestep kper="1" kstp="24" mode="normal"


end timestep


start timestep kper="1" kstp="25" mode="normal"


end timestep


start timestep kper="1" kstp="26" mode="normal"


end timestep


start timestep kper="1" kstp="27" mode="normal"


end timestep


start timestep kper="1" kstp="28" mode="normal"


end timestep


start timestep kper="1" kstp="29" mode="normal"


end timestep


start timestep kper="1" kstp="30" mode="normal"


end timestep


start timestep kper="1" kstp="31" mode="normal"


end timestep


start timestep kper="1" kstp="32" mode="normal"


end timestep


start timestep kper="1" kstp="33" mode="normal"


end timestep


start timestep kper="1" kstp="34" mode="normal"


end timestep


start timestep kper="1" kstp="35" mode="normal"


end timestep


start timestep kper="1" kstp="36" mode="normal"


end timestep


start timestep kper="1" kstp="37" mode="normal"


end timestep


start timestep kper="1" kstp="38" mode="normal"


end timestep


start timestep kper="1" kstp="39" mode="normal"


end timestep


start timestep kper="1" kstp="40" mode="normal"


end timestep


start timestep kper="1" kstp="41" mode="normal"


end timestep


start timestep kper="1" kstp="42" mode="normal"


end timestep


start timestep kper="1" kstp="43" mode="normal"


end timestep


start timestep kper="1" kstp="44" mode="normal"


end timestep


start timestep kper="1" kstp="45" mode="normal"


end timestep


start timestep kper="1" kstp="46" mode="normal"


end timestep


start timestep kper="1" kstp="47" mode="normal"


end timestep


start timestep kper="1" kstp="48" mode="normal"


end timestep


start timestep kper="1" kstp="49" mode="normal"


end timestep


start timestep kper="1" kstp="50" mode="normal"


end timestep


start timestep kper="1" kstp="51" mode="normal"


end timestep


start timestep kper="1" kstp="52" mode="normal"


end timestep


start timestep kper="1" kstp="53" mode="normal"


end timestep


start timestep kper="1" kstp="54" mode="normal"


end timestep


start timestep kper="1" kstp="55" mode="normal"


end timestep


start timestep kper="1" kstp="56" mode="normal"


end timestep


start timestep kper="1" kstp="57" mode="normal"


end timestep


start timestep kper="1" kstp="58" mode="normal"


end timestep


start timestep kper="1" kstp="59" mode="normal"


end timestep


start timestep kper="1" kstp="60" mode="normal"


end timestep


start timestep kper="1" kstp="61" mode="normal"


end timestep


start timestep kper="1" kstp="62" mode="normal"


end timestep


start timestep kper="1" kstp="63" mode="normal"


end timestep


start timestep kper="1" kstp="64" mode="normal"


end timestep


start timestep kper="1" kstp="65" mode="normal"


end timestep


start timestep kper="1" kstp="66" mode="normal"


end timestep


start timestep kper="1" kstp="67" mode="normal"


end timestep


start timestep kper="1" kstp="68" mode="normal"


end timestep


start timestep kper="1" kstp="69" mode="normal"


end timestep


start timestep kper="1" kstp="70" mode="normal"


end timestep


start timestep kper="1" kstp="71" mode="normal"


end timestep


start timestep kper="1" kstp="72" mode="normal"


end timestep


start timestep kper="1" kstp="73" mode="normal"


end timestep


start timestep kper="1" kstp="74" mode="normal"


end timestep


start timestep kper="1" kstp="75" mode="normal"


end timestep


start timestep kper="1" kstp="76" mode="normal"


end timestep


start timestep kper="1" kstp="77" mode="normal"


end timestep


start timestep kper="1" kstp="78" mode="normal"


end timestep


start timestep kper="1" kstp="79" mode="normal"


end timestep


start timestep kper="1" kstp="80" mode="normal"


end timestep


start timestep kper="1" kstp="81" mode="normal"


end timestep


start timestep kper="1" kstp="82" mode="normal"


end timestep


start timestep kper="1" kstp="83" mode="normal"


end timestep


start timestep kper="1" kstp="84" mode="normal"


end timestep


start timestep kper="1" kstp="85" mode="normal"


end timestep


start timestep kper="1" kstp="86" mode="normal"


end timestep


start timestep kper="1" kstp="87" mode="normal"


end timestep


start timestep kper="1" kstp="88" mode="normal"


end timestep


start timestep kper="1" kstp="89" mode="normal"


end timestep


start timestep kper="1" kstp="90" mode="normal"


end timestep


start timestep kper="1" kstp="91" mode="normal"


end timestep


start timestep kper="1" kstp="92" mode="normal"


end timestep


start timestep kper="1" kstp="93" mode="normal"


end timestep


start timestep kper="1" kstp="94" mode="normal"


end timestep


start timestep kper="1" kstp="95" mode="normal"


end timestep


start timestep kper="1" kstp="96" mode="normal"


end timestep


start timestep kper="1" kstp="97" mode="normal"


end timestep


start timestep kper="1" kstp="98" mode="normal"


end timestep


start timestep kper="1" kstp="99" mode="normal"


end timestep


start timestep kper="1" kstp="100" mode="normal"


end timestep


start timestep kper="1" kstp="101" mode="normal"


end timestep


start timestep kper="1" kstp="102" mode="normal"


end timestep


start timestep kper="1" kstp="103" mode="normal"


end timestep


start timestep kper="1" kstp="104" mode="normal"


end timestep


start timestep kper="1" kstp="105" mode="normal"


end timestep


start timestep kper="1" kstp="106" mode="normal"


end timestep


start timestep kper="1" kstp="107" mode="normal"


end timestep


start timestep kper="1" kstp="108" mode="normal"


end timestep


start timestep kper="1" kstp="109" mode="normal"


end timestep


start timestep kper="1" kstp="110" mode="normal"


end timestep


start timestep kper="1" kstp="111" mode="normal"


end timestep


start timestep kper="1" kstp="112" mode="normal"


end timestep


start timestep kper="1" kstp="113" mode="normal"


end timestep


start timestep kper="1" kstp="114" mode="normal"


end timestep


start timestep kper="1" kstp="115" mode="normal"


end timestep


start timestep kper="1" kstp="116" mode="normal"


end timestep


start timestep kper="1" kstp="117" mode="normal"


end timestep


start timestep kper="1" kstp="118" mode="normal"


end timestep


start timestep kper="1" kstp="119" mode="normal"


end timestep


start timestep kper="1" kstp="120" mode="normal"


end timestep


start timestep kper="1" kstp="121" mode="normal"


end timestep


start timestep kper="1" kstp="122" mode="normal"


end timestep


start timestep kper="1" kstp="123" mode="normal"


end timestep


start timestep kper="1" kstp="124" mode="normal"


end timestep


start timestep kper="1" kstp="125" mode="normal"


end timestep


start timestep kper="1" kstp="126" mode="normal"


end timestep


start timestep kper="1" kstp="127" mode="normal"


end timestep


start timestep kper="1" kstp="128" mode="normal"


end timestep


start timestep kper="1" kstp="129" mode="normal"


end timestep


start timestep kper="1" kstp="130" mode="normal"


end timestep


start timestep kper="1" kstp="131" mode="normal"


end timestep


start timestep kper="1" kstp="132" mode="normal"


end timestep


start timestep kper="1" kstp="133" mode="normal"


end timestep


start timestep kper="1" kstp="134" mode="normal"


end timestep


start timestep kper="1" kstp="135" mode="normal"


end timestep


start timestep kper="1" kstp="136" mode="normal"


end timestep


start timestep kper="1" kstp="137" mode="normal"


end timestep


start timestep kper="1" kstp="138" mode="normal"


end timestep


start timestep kper="1" kstp="139" mode="normal"


end timestep


start timestep kper="1" kstp="140" mode="normal"


end timestep


start timestep kper="1" kstp="141" mode="normal"


end timestep


start timestep kper="1" kstp="142" mode="normal"


end timestep


start timestep kper="1" kstp="143" mode="normal"


end timestep


start timestep kper="1" kstp="144" mode="normal"


end timestep


start timestep kper="1" kstp="145" mode="normal"


end timestep


start timestep kper="1" kstp="146" mode="normal"


end timestep


start timestep kper="1" kstp="147" mode="normal"


end timestep


start timestep kper="1" kstp="148" mode="normal"


end timestep


start timestep kper="1" kstp="149" mode="normal"


end timestep


start timestep kper="1" kstp="150" mode="normal"


end timestep


start timestep kper="1" kstp="151" mode="normal"


end timestep


start timestep kper="1" kstp="152" mode="normal"


end timestep


start timestep kper="1" kstp="153" mode="normal"


end timestep


start timestep kper="1" kstp="154" mode="normal"


end timestep


start timestep kper="1" kstp="155" mode="normal"


end timestep


start timestep kper="1" kstp="156" mode="normal"


end timestep


start timestep kper="1" kstp="157" mode="normal"


end timestep


start timestep kper="1" kstp="158" mode="normal"


end timestep


start timestep kper="1" kstp="159" mode="normal"


end timestep


start timestep kper="1" kstp="160" mode="normal"


end timestep


start timestep kper="1" kstp="161" mode="normal"


end timestep


start timestep kper="1" kstp="162" mode="normal"


end timestep


start timestep kper="1" kstp="163" mode="normal"


end timestep


start timestep kper="1" kstp="164" mode="normal"


end timestep


start timestep kper="1" kstp="165" mode="normal"


end timestep


start timestep kper="1" kstp="166" mode="normal"


end timestep


start timestep kper="1" kstp="167" mode="normal"


end timestep


start timestep kper="1" kstp="168" mode="normal"


end timestep


start timestep kper="1" kstp="169" mode="normal"


end timestep


start timestep kper="1" kstp="170" mode="normal"


end timestep


start timestep kper="1" kstp="171" mode="normal"


end timestep


start timestep kper="1" kstp="172" mode="normal"


end timestep


start timestep kper="1" kstp="173" mode="normal"


end timestep


start timestep kper="1" kstp="174" mode="normal"


end timestep


start timestep kper="1" kstp="175" mode="normal"


end timestep


start timestep kper="1" kstp="176" mode="normal"


end timestep


start timestep kper="1" kstp="177" mode="normal"


end timestep


start timestep kper="1" kstp="178" mode="normal"


end timestep


start timestep kper="1" kstp="179" mode="normal"


end timestep


start timestep kper="1" kstp="180" mode="normal"


end timestep


start timestep kper="1" kstp="181" mode="normal"


end timestep


start timestep kper="1" kstp="182" mode="normal"


end timestep


start timestep kper="1" kstp="183" mode="normal"


end timestep


start timestep kper="1" kstp="184" mode="normal"


end timestep


start timestep kper="1" kstp="185" mode="normal"


end timestep


start timestep kper="1" kstp="186" mode="normal"


end timestep


start timestep kper="1" kstp="187" mode="normal"


end timestep


start timestep kper="1" kstp="188" mode="normal"


end timestep


start timestep kper="1" kstp="189" mode="normal"


end timestep


start timestep kper="1" kstp="190" mode="normal"


end timestep


start timestep kper="1" kstp="191" mode="normal"


end timestep


start timestep kper="1" kstp="192" mode="normal"


end timestep


start timestep kper="1" kstp="193" mode="normal"


end timestep


start timestep kper="1" kstp="194" mode="normal"


end timestep


start timestep kper="1" kstp="195" mode="normal"


end timestep


start timestep kper="1" kstp="196" mode="normal"


end timestep


start timestep kper="1" kstp="197" mode="normal"


end timestep


start timestep kper="1" kstp="198" mode="normal"


end timestep


start timestep kper="1" kstp="199" mode="normal"


end timestep


start timestep kper="1" kstp="200" mode="normal"


end timestep


start timestep kper="1" kstp="201" mode="normal"


end timestep


start timestep kper="1" kstp="202" mode="normal"


end timestep


start timestep kper="1" kstp="203" mode="normal"


end timestep


start timestep kper="1" kstp="204" mode="normal"


end timestep


start timestep kper="1" kstp="205" mode="normal"


end timestep


start timestep kper="1" kstp="206" mode="normal"


end timestep


start timestep kper="1" kstp="207" mode="normal"


end timestep


start timestep kper="1" kstp="208" mode="normal"


end timestep


start timestep kper="1" kstp="209" mode="normal"


end timestep


start timestep kper="1" kstp="210" mode="normal"


end timestep


start timestep kper="1" kstp="211" mode="normal"


end timestep


start timestep kper="1" kstp="212" mode="normal"


end timestep


start timestep kper="1" kstp="213" mode="normal"


end timestep


start timestep kper="1" kstp="214" mode="normal"


end timestep


start timestep kper="1" kstp="215" mode="normal"


end timestep


start timestep kper="1" kstp="216" mode="normal"


end timestep


start timestep kper="1" kstp="217" mode="normal"


end timestep


start timestep kper="1" kstp="218" mode="normal"


end timestep


start timestep kper="1" kstp="219" mode="normal"


end timestep


start timestep kper="1" kstp="220" mode="normal"


end timestep


start timestep kper="1" kstp="221" mode="normal"


end timestep


start timestep kper="1" kstp="222" mode="normal"


end timestep


start timestep kper="1" kstp="223" mode="normal"


end timestep


start timestep kper="1" kstp="224" mode="normal"


end timestep


start timestep kper="1" kstp="225" mode="normal"


end timestep


start timestep kper="1" kstp="226" mode="normal"


end timestep


start timestep kper="1" kstp="227" mode="normal"


end timestep


start timestep kper="1" kstp="228" mode="normal"


end timestep


start timestep kper="1" kstp="229" mode="normal"


end timestep


start timestep kper="1" kstp="230" mode="normal"


end timestep


start timestep kper="1" kstp="231" mode="normal"


end timestep


start timestep kper="1" kstp="232" mode="normal"


end timestep


start timestep kper="1" kstp="233" mode="normal"


end timestep


start timestep kper="1" kstp="234" mode="normal"


end timestep


start timestep kper="1" kstp="235" mode="normal"


end timestep


start timestep kper="1" kstp="236" mode="normal"


end timestep


start timestep kper="1" kstp="237" mode="normal"


end timestep


start timestep kper="1" kstp="238" mode="normal"


end timestep


start timestep kper="1" kstp="239" mode="normal"


end timestep


start timestep kper="1" kstp="240" mode="normal"


end timestep


start timestep kper="1" kstp="241" mode="normal"


end timestep


start timestep kper="1" kstp="242" mode="normal"


end timestep


start timestep kper="1" kstp="243" mode="normal"


end timestep


start timestep kper="1" kstp="244" mode="normal"


end timestep


start timestep kper="1" kstp="245" mode="normal"


end timestep


start timestep kper="1" kstp="246" mode="normal"


end timestep


start timestep kper="1" kstp="247" mode="normal"


end timestep


start timestep kper="1" kstp="248" mode="normal"


end timestep


start timestep kper="1" kstp="249" mode="normal"


end timestep


start timestep kper="1" kstp="250" mode="normal"


 CONCENTRATION WILL BE SAVED ON UNIT 1056 AT END OF TIME STEP  250, STRESS PERIOD    1

end timestep


start timestep kper="1" kstp="251" mode="normal"


end timestep


start timestep kper="1" kstp="252" mode="normal"


end timestep


start timestep kper="1" kstp="253" mode="normal"


end timestep


start timestep kper="1" kstp="254" mode="normal"


end timestep


start timestep kper="1" kstp="255" mode="normal"


end timestep


start timestep kper="1" kstp="256" mode="normal"


end timestep


start timestep kper="1" kstp="257" mode="normal"


end timestep


start timestep kper="1" kstp="258" mode="normal"


end timestep


start timestep kper="1" kstp="259" mode="normal"


end timestep


start timestep kper="1" kstp="260" mode="normal"


end timestep


start timestep kper="1" kstp="261" mode="normal"


end timestep


start timestep kper="1" kstp="262" mode="normal"


end timestep


start timestep kper="1" kstp="263" mode="normal"


end timestep


start timestep kper="1" kstp="264" mode="normal"


end timestep


start timestep kper="1" kstp="265" mode="normal"


end timestep


start timestep kper="1" kstp="266" mode="normal"


end timestep


start timestep kper="1" kstp="267" mode="normal"


end timestep


start timestep kper="1" kstp="268" mode="normal"


end timestep


start timestep kper="1" kstp="269" mode="normal"


end timestep


start timestep kper="1" kstp="270" mode="normal"


end timestep


start timestep kper="1" kstp="271" mode="normal"


end timestep


start timestep kper="1" kstp="272" mode="normal"


end timestep


start timestep kper="1" kstp="273" mode="normal"


end timestep


start timestep kper="1" kstp="274" mode="normal"


end timestep


start timestep kper="1" kstp="275" mode="normal"


end timestep


start timestep kper="1" kstp="276" mode="normal"


end timestep


start timestep kper="1" kstp="277" mode="normal"


end timestep


start timestep kper="1" kstp="278" mode="normal"


end timestep


start timestep kper="1" kstp="279" mode="normal"


end timestep


start timestep kper="1" kstp="280" mode="normal"


end timestep


start timestep kper="1" kstp="281" mode="normal"


end timestep


start timestep kper="1" kstp="282" mode="normal"


end timestep


start timestep kper="1" kstp="283" mode="normal"


end timestep


start timestep kper="1" kstp="284" mode="normal"


end timestep


start timestep kper="1" kstp="285" mode="normal"


end timestep


start timestep kper="1" kstp="286" mode="normal"


end timestep


start timestep kper="1" kstp="287" mode="normal"


end timestep


start timestep kper="1" kstp="288" mode="normal"


end timestep


start timestep kper="1" kstp="289" mode="normal"


end timestep


start timestep kper="1" kstp="290" mode="normal"


end timestep


start timestep kper="1" kstp="291" mode="normal"


end timestep


start timestep kper="1" kstp="292" mode="normal"


end timestep


start timestep kper="1" kstp="293" mode="normal"


end timestep


start timestep kper="1" kstp="294" mode="normal"


end timestep


start timestep kper="1" kstp="295" mode="normal"


end timestep


start timestep kper="1" kstp="296" mode="normal"


end timestep


start timestep kper="1" kstp="297" mode="normal"


end timestep


start timestep kper="1" kstp="298" mode="normal"


end timestep


start timestep kper="1" kstp="299" mode="normal"


end timestep


start timestep kper="1" kstp="300" mode="normal"


end timestep


start timestep kper="1" kstp="301" mode="normal"


end timestep


start timestep kper="1" kstp="302" mode="normal"


end timestep


start timestep kper="1" kstp="303" mode="normal"


end timestep


start timestep kper="1" kstp="304" mode="normal"


end timestep


start timestep kper="1" kstp="305" mode="normal"


end timestep


start timestep kper="1" kstp="306" mode="normal"


end timestep


start timestep kper="1" kstp="307" mode="normal"


end timestep


start timestep kper="1" kstp="308" mode="normal"


end timestep


start timestep kper="1" kstp="309" mode="normal"


end timestep


start timestep kper="1" kstp="310" mode="normal"


end timestep


start timestep kper="1" kstp="311" mode="normal"


end timestep


start timestep kper="1" kstp="312" mode="normal"


end timestep


start timestep kper="1" kstp="313" mode="normal"


end timestep


start timestep kper="1" kstp="314" mode="normal"


end timestep


start timestep kper="1" kstp="315" mode="normal"


end timestep


start timestep kper="1" kstp="316" mode="normal"


end timestep


start timestep kper="1" kstp="317" mode="normal"


end timestep


start timestep kper="1" kstp="318" mode="normal"


end timestep


start timestep kper="1" kstp="319" mode="normal"


end timestep


start timestep kper="1" kstp="320" mode="normal"


end timestep


start timestep kper="1" kstp="321" mode="normal"


end timestep


start timestep kper="1" kstp="322" mode="normal"


end timestep


start timestep kper="1" kstp="323" mode="normal"


end timestep


start timestep kper="1" kstp="324" mode="normal"


end timestep


start timestep kper="1" kstp="325" mode="normal"


end timestep


start timestep kper="1" kstp="326" mode="normal"


end timestep


start timestep kper="1" kstp="327" mode="normal"


end timestep


start timestep kper="1" kstp="328" mode="normal"


end timestep


start timestep kper="1" kstp="329" mode="normal"


end timestep


start timestep kper="1" kstp="330" mode="normal"


end timestep


start timestep kper="1" kstp="331" mode="normal"


end timestep


start timestep kper="1" kstp="332" mode="normal"


end timestep


start timestep kper="1" kstp="333" mode="normal"


end timestep


start timestep kper="1" kstp="334" mode="normal"


end timestep


start timestep kper="1" kstp="335" mode="normal"


end timestep


start timestep kper="1" kstp="336" mode="normal"


end timestep


start timestep kper="1" kstp="337" mode="normal"


end timestep


start timestep kper="1" kstp="338" mode="normal"


end timestep


start timestep kper="1" kstp="339" mode="normal"


end timestep


start timestep kper="1" kstp="340" mode="normal"


end timestep


start timestep kper="1" kstp="341" mode="normal"


end timestep


start timestep kper="1" kstp="342" mode="normal"


end timestep


start timestep kper="1" kstp="343" mode="normal"


end timestep


start timestep kper="1" kstp="344" mode="normal"


end timestep


start timestep kper="1" kstp="345" mode="normal"


end timestep


start timestep kper="1" kstp="346" mode="normal"


end timestep


start timestep kper="1" kstp="347" mode="normal"


end timestep


start timestep kper="1" kstp="348" mode="normal"


end timestep


start timestep kper="1" kstp="349" mode="normal"


end timestep


start timestep kper="1" kstp="350" mode="normal"


end timestep


start timestep kper="1" kstp="351" mode="normal"


end timestep


start timestep kper="1" kstp="352" mode="normal"


end timestep


start timestep kper="1" kstp="353" mode="normal"


end timestep


start timestep kper="1" kstp="354" mode="normal"


end timestep


start timestep kper="1" kstp="355" mode="normal"


end timestep


start timestep kper="1" kstp="356" mode="normal"


end timestep


start timestep kper="1" kstp="357" mode="normal"


end timestep


start timestep kper="1" kstp="358" mode="normal"


end timestep


start timestep kper="1" kstp="359" mode="normal"


end timestep


start timestep kper="1" kstp="360" mode="normal"


end timestep


start timestep kper="1" kstp="361" mode="normal"


end timestep


start timestep kper="1" kstp="362" mode="normal"


end timestep


start timestep kper="1" kstp="363" mode="normal"


end timestep


start timestep kper="1" kstp="364" mode="normal"


end timestep


start timestep kper="1" kstp="365" mode="normal"


end timestep


start timestep kper="1" kstp="366" mode="normal"


end timestep


start timestep kper="1" kstp="367" mode="normal"


end timestep


start timestep kper="1" kstp="368" mode="normal"


end timestep


start timestep kper="1" kstp="369" mode="normal"


end timestep


start timestep kper="1" kstp="370" mode="normal"


end timestep


start timestep kper="1" kstp="371" mode="normal"


end timestep


start timestep kper="1" kstp="372" mode="normal"


end timestep


start timestep kper="1" kstp="373" mode="normal"


end timestep


start timestep kper="1" kstp="374" mode="normal"


end timestep


start timestep kper="1" kstp="375" mode="normal"


 CONCENTRATION WILL BE SAVED ON UNIT 1056 AT END OF TIME STEP  375, STRESS PERIOD    1

end timestep


start timestep kper="1" kstp="376" mode="normal"


end timestep


start timestep kper="1" kstp="377" mode="normal"


end timestep


start timestep kper="1" kstp="378" mode="normal"


end timestep


start timestep kper="1" kstp="379" mode="normal"


end timestep


start timestep kper="1" kstp="380" mode="normal"


end timestep


start timestep kper="1" kstp="381" mode="normal"


end timestep


start timestep kper="1" kstp="382" mode="normal"


end timestep


start timestep kper="1" kstp="383" mode="normal"


end timestep


start timestep kper="1" kstp="384" mode="normal"


end timestep


start timestep kper="1" kstp="385" mode="normal"


end timestep


start timestep kper="1" kstp="386" mode="normal"


end timestep


start timestep kper="1" kstp="387" mode="normal"


end timestep


start timestep kper="1" kstp="388" mode="normal"


end timestep


start timestep kper="1" kstp="389" mode="normal"


end timestep


start timestep kper="1" kstp="390" mode="normal"


end timestep


start timestep kper="1" kstp="391" mode="normal"


end timestep


start timestep kper="1" kstp="392" mode="normal"


end timestep


start timestep kper="1" kstp="393" mode="normal"


end timestep


start timestep kper="1" kstp="394" mode="normal"


end timestep


start timestep kper="1" kstp="395" mode="normal"


end timestep


start timestep kper="1" kstp="396" mode="normal"


end timestep


start timestep kper="1" kstp="397" mode="normal"


end timestep


start timestep kper="1" kstp="398" mode="normal"


end timestep


start timestep kper="1" kstp="399" mode="normal"


end timestep


start timestep kper="1" kstp="400" mode="normal"


end timestep


start timestep kper="1" kstp="401" mode="normal"


end timestep


start timestep kper="1" kstp="402" mode="normal"


end timestep


start timestep kper="1" kstp="403" mode="normal"


end timestep


start timestep kper="1" kstp="404" mode="normal"


end timestep


start timestep kper="1" kstp="405" mode="normal"


end timestep


start timestep kper="1" kstp="406" mode="normal"


end timestep


start timestep kper="1" kstp="407" mode="normal"


end timestep


start timestep kper="1" kstp="408" mode="normal"


end timestep


start timestep kper="1" kstp="409" mode="normal"


end timestep


start timestep kper="1" kstp="410" mode="normal"


end timestep


start timestep kper="1" kstp="411" mode="normal"


end timestep


start timestep kper="1" kstp="412" mode="normal"


end timestep


start timestep kper="1" kstp="413" mode="normal"


end timestep


start timestep kper="1" kstp="414" mode="normal"


end timestep


start timestep kper="1" kstp="415" mode="normal"


end timestep


start timestep kper="1" kstp="416" mode="normal"


end timestep


start timestep kper="1" kstp="417" mode="normal"


end timestep


start timestep kper="1" kstp="418" mode="normal"


end timestep


start timestep kper="1" kstp="419" mode="normal"


end timestep


start timestep kper="1" kstp="420" mode="normal"


end timestep


start timestep kper="1" kstp="421" mode="normal"


end timestep


start timestep kper="1" kstp="422" mode="normal"


end timestep


start timestep kper="1" kstp="423" mode="normal"


end timestep


start timestep kper="1" kstp="424" mode="normal"


end timestep


start timestep kper="1" kstp="425" mode="normal"


end timestep


start timestep kper="1" kstp="426" mode="normal"


end timestep


start timestep kper="1" kstp="427" mode="normal"


end timestep


start timestep kper="1" kstp="428" mode="normal"


end timestep


start timestep kper="1" kstp="429" mode="normal"


end timestep


start timestep kper="1" kstp="430" mode="normal"


end timestep


start timestep kper="1" kstp="431" mode="normal"


end timestep


start timestep kper="1" kstp="432" mode="normal"


end timestep


start timestep kper="1" kstp="433" mode="normal"


end timestep


start timestep kper="1" kstp="434" mode="normal"


end timestep


start timestep kper="1" kstp="435" mode="normal"


end timestep


start timestep kper="1" kstp="436" mode="normal"


end timestep


start timestep kper="1" kstp="437" mode="normal"


end timestep


start timestep kper="1" kstp="438" mode="normal"


end timestep


start timestep kper="1" kstp="439" mode="normal"


end timestep


start timestep kper="1" kstp="440" mode="normal"


end timestep


start timestep kper="1" kstp="441" mode="normal"


end timestep


start timestep kper="1" kstp="442" mode="normal"


end timestep


start timestep kper="1" kstp="443" mode="normal"


end timestep


start timestep kper="1" kstp="444" mode="normal"


end timestep


start timestep kper="1" kstp="445" mode="normal"


end timestep


start timestep kper="1" kstp="446" mode="normal"


end timestep


start timestep kper="1" kstp="447" mode="normal"


end timestep


start timestep kper="1" kstp="448" mode="normal"


end timestep


start timestep kper="1" kstp="449" mode="normal"


end timestep


start timestep kper="1" kstp="450" mode="normal"


end timestep


start timestep kper="1" kstp="451" mode="normal"


end timestep


start timestep kper="1" kstp="452" mode="normal"


end timestep


start timestep kper="1" kstp="453" mode="normal"


end timestep


start timestep kper="1" kstp="454" mode="normal"


end timestep


start timestep kper="1" kstp="455" mode="normal"


end timestep


start timestep kper="1" kstp="456" mode="normal"


end timestep


start timestep kper="1" kstp="457" mode="normal"


end timestep


start timestep kper="1" kstp="458" mode="normal"


end timestep


start timestep kper="1" kstp="459" mode="normal"


end timestep


start timestep kper="1" kstp="460" mode="normal"


end timestep


start timestep kper="1" kstp="461" mode="normal"


end timestep


start timestep kper="1" kstp="462" mode="normal"


end timestep


start timestep kper="1" kstp="463" mode="normal"


end timestep


start timestep kper="1" kstp="464" mode="normal"


end timestep


start timestep kper="1" kstp="465" mode="normal"


end timestep


start timestep kper="1" kstp="466" mode="normal"


end timestep


start timestep kper="1" kstp="467" mode="normal"


end timestep


start timestep kper="1" kstp="468" mode="normal"


end timestep


start timestep kper="1" kstp="469" mode="normal"


end timestep


start timestep kper="1" kstp="470" mode="normal"


end timestep


start timestep kper="1" kstp="471" mode="normal"


end timestep


start timestep kper="1" kstp="472" mode="normal"


end timestep


start timestep kper="1" kstp="473" mode="normal"


end timestep


start timestep kper="1" kstp="474" mode="normal"


end timestep


start timestep kper="1" kstp="475" mode="normal"


end timestep


start timestep kper="1" kstp="476" mode="normal"


end timestep


start timestep kper="1" kstp="477" mode="normal"


end timestep


start timestep kper="1" kstp="478" mode="normal"


end timestep


start timestep kper="1" kstp="479" mode="normal"


end timestep


start timestep kper="1" kstp="480" mode="normal"


end timestep


start timestep kper="1" kstp="481" mode="normal"


end timestep


start timestep kper="1" kstp="482" mode="normal"


end timestep


start timestep kper="1" kstp="483" mode="normal"


end timestep


start timestep kper="1" kstp="484" mode="normal"


end timestep


start timestep kper="1" kstp="485" mode="normal"


end timestep


start timestep kper="1" kstp="486" mode="normal"


end timestep


start timestep kper="1" kstp="487" mode="normal"


end timestep


start timestep kper="1" kstp="488" mode="normal"


end timestep


start timestep kper="1" kstp="489" mode="normal"


end timestep


start timestep kper="1" kstp="490" mode="normal"


end timestep


start timestep kper="1" kstp="491" mode="normal"


end timestep


start timestep kper="1" kstp="492" mode="normal"


end timestep


start timestep kper="1" kstp="493" mode="normal"


end timestep


start timestep kper="1" kstp="494" mode="normal"


end timestep


start timestep kper="1" kstp="495" mode="normal"


end timestep


start timestep kper="1" kstp="496" mode="normal"


end timestep


start timestep kper="1" kstp="497" mode="normal"


end timestep


start timestep kper="1" kstp="498" mode="normal"


end timestep


start timestep kper="1" kstp="499" mode="normal"


end timestep


start timestep kper="1" kstp="500" mode="normal"

 UBDSV1 SAVING  STORAGE-AQUEOUS ON UNIT   1055 AT TIME STEP    500, STRESS PERIOD      1
 UBDSV1 SAVING   STORAGE-SORBED ON UNIT   1055 AT TIME STEP    500, STRESS PERIOD      1
 UBDSV1 SAVING     FLOW-JA-FACE ON UNIT   1055 AT TIME STEP    500, STRESS PERIOD      1
 UBDSV06 SAVING  SOURCE-SINK MIX IN MODEL GWT-INNER        PACKAGE GWT-INNER       CONNECTED TO MODEL GWT-INNER        PACKAGE SSM              ON UNIT   1055 AT TIME STEP    500, STRESS PERIOD      1

 SSM PACKAGE (SSM) FLOW RATES   PERIOD      1   STEP      500
 ------------------------------------------------------------------------------------------------
   NUMBER   CELLID                   BOUND Q        SSM CONC          RATE         PACKAGE NAME  
 ------------------------------------------------------------------------------------------------
     1      (3,3,23)             -19230.000       0.92544628     -17796.332           WEL-1      
     2      (3,11,20)            -19230.000       4.5010834      -86555.833           WEL-1      
     3      (3,18,17)            -19230.000       9.4665831      -182042.39           WEL-1      
     4      (3,25,14)            -19230.000       17.126246      -329337.71           WEL-1      
     5      (3,32,11)            -19230.000       20.420282      -392682.02           WEL-1      
     6      (3,40,8)             -19230.000       15.471785      -297522.42           WEL-1      
     7      (3,40,3)             -15384.000       6.5072716      -100107.87           WEL-1      
     8      (3,44,11)            -17307.000       3.3683065      -58295.280           WEL-1      
     1      (1,1,1)               2.8538750       0.0000000       0.0000000           RCH-1      
     2      (1,1,2)               2.8538750       0.0000000       0.0000000           RCH-1      
     3      (1,1,3)               2.8538750       0.0000000       0.0000000           RCH-1      
     4      (1,1,4)               2.8538750       0.0000000       0.0000000           RCH-1      
     5      (1,1,5)               2.8538750       0.0000000       0.0000000           RCH-1      
     6      (1,1,6)               2.8538750       0.0000000       0.0000000           RCH-1      
     7      (1,1,7)               2.8538750       0.0000000       0.0000000           RCH-1      
     8      (1,1,8)               2.8538750       0.0000000       0.0000000           RCH-1      
     9      (1,1,9)               2.8538750       0.0000000       0.0000000           RCH-1      
     10     (1,1,10)              2.8538750       0.0000000       0.0000000           RCH-1      
     11     (1,1,11)              2.8538750       0.0000000       0.0000000           RCH-1      
     12     (1,1,12)              2.8538750       0.0000000       0.0000000           RCH-1      
     13     (1,1,13)              2.8538750       0.0000000       0.0000000           RCH-1      
     14     (1,1,14)              2.8538750       0.0000000       0.0000000           RCH-1      
     15     (1,1,15)              2.8538750       0.0000000       0.0000000           RCH-1      
     16     (1,1,16)              2.8538750       0.0000000       0.0000000           RCH-1      
     17     (1,1,17)              2.8538750       0.0000000       0.0000000           RCH-1      
     18     (1,1,18)              2.8538750       0.0000000       0.0000000           RCH-1      
     19     (1,1,19)              2.8538750       0.0000000       0.0000000           RCH-1      
     20     (1,1,20)              2.8538750       0.0000000       0.0000000           RCH-1      
     21     (1,1,21)              2.8538750       0.0000000       0.0000000           RCH-1      
     22     (1,1,22)              2.8538750       0.0000000       0.0000000           RCH-1      
     23     (1,1,23)              2.8538750       0.0000000       0.0000000           RCH-1      
     24     (1,1,24)              2.8538750       0.0000000       0.0000000           RCH-1      
     25     (1,1,25)              2.8538750       0.0000000       0.0000000           RCH-1      
     26     (1,1,26)              2.8538750       0.0000000       0.0000000           RCH-1      
     27     (1,1,27)              2.8538750       0.0000000       0.0000000           RCH-1      
     28     (1,1,28)              2.8538750       0.0000000       0.0000000           RCH-1      
     29     (1,2,1)               2.8538750       0.0000000       0.0000000           RCH-1      
     30     (1,2,2)               2.8538750       0.0000000       0.0000000           RCH-1      
     31     (1,2,3)               2.8538750       0.0000000       0.0000000           RCH-1      
     32     (1,2,4)               2.8538750       0.0000000       0.0000000           RCH-1      
     33     (1,2,5)               2.8538750       0.0000000       0.0000000           RCH-1      
     34     (1,2,6)               2.8538750       0.0000000       0.0000000           RCH-1      
     35     (1,2,7)               2.8538750       0.0000000       0.0000000           RCH-1      
     36     (1,2,8)               2.8538750       0.0000000       0.0000000           RCH-1      
     37     (1,2,9)               2.8538750       0.0000000       0.0000000           RCH-1      
     38     (1,2,10)              2.8538750       0.0000000       0.0000000           RCH-1      
     39     (1,2,11)              2.8538750       0.0000000       0.0000000           RCH-1      
     40     (1,2,12)              2.8538750       0.0000000       0.0000000           RCH-1      
     41     (1,2,13)              2.8538750       0.0000000       0.0000000           RCH-1      
     42     (1,2,14)              2.8538750       0.0000000       0.0000000           RCH-1      
     43     (1,2,15)              2.8538750       0.0000000       0.0000000           RCH-1      
     44     (1,2,16)              2.8538750       0.0000000       0.0000000           RCH-1      
     45     (1,2,17)              2.8538750       0.0000000       0.0000000           RCH-1      
     46     (1,2,18)              2.8538750       0.0000000       0.0000000           RCH-1      
     47     (1,2,19)              2.8538750       0.0000000       0.0000000           RCH-1      
     48     (1,2,20)              2.8538750       0.0000000       0.0000000           RCH-1      
     49     (1,2,21)              2.8538750       0.0000000       0.0000000           RCH-1      
     50     (1,2,22)              2.8538750       0.0000000       0.0000000           RCH-1      
     51     (1,2,23)              2.8538750       0.0000000       0.0000000           RCH-1      
     52     (1,2,24)              2.8538750       0.0000000       0.0000000           RCH-1      
     53     (1,2,25)              2.8538750       0.0000000       0.0000000           RCH-1      
     54     (1,2,26)              2.8538750       0.0000000       0.0000000           RCH-1      
     55     (1,2,27)              2.8538750       0.0000000       0.0000000           RCH-1      
     56     (1,2,28)              2.8538750       0.0000000       0.0000000           RCH-1      
     57     (1,3,1)               2.8538750       0.0000000       0.0000000           RCH-1      
     58     (1,3,2)               2.8538750       0.0000000       0.0000000           RCH-1      
     59     (1,3,3)               2.8538750       0.0000000       0.0000000           RCH-1      
     60     (1,3,4)               2.8538750       0.0000000       0.0000000           RCH-1      
     61     (1,3,5)               2.8538750       0.0000000       0.0000000           RCH-1      
     62     (1,3,6)               2.8538750       0.0000000       0.0000000           RCH-1      
     63     (1,3,7)               2.8538750       0.0000000       0.0000000           RCH-1      
     64     (1,3,8)               2.8538750       0.0000000       0.0000000           RCH-1      
     65     (1,3,9)               2.8538750       0.0000000       0.0000000           RCH-1      
     66     (1,3,10)              2.8538750       0.0000000       0.0000000           RCH-1      
     67     (1,3,11)              2.8538750       0.0000000       0.0000000           RCH-1      
     68     (1,3,12)              2.8538750       0.0000000       0.0000000           RCH-1      
     69     (1,3,13)              2.8538750       0.0000000       0.0000000           RCH-1      
     70     (1,3,14)              2.8538750       0.0000000       0.0000000           RCH-1      
     71     (1,3,15)              2.8538750       0.0000000       0.0000000           RCH-1      
     72     (1,3,16)              2.8538750       0.0000000       0.0000000           RCH-1      
     73     (1,3,17)              2.8538750       0.0000000       0.0000000           RCH-1      
     74     (1,3,18)              2.8538750       0.0000000       0.0000000           RCH-1      
     75     (1,3,19)              2.8538750       0.0000000       0.0000000           RCH-1      
     76     (1,3,20)              2.8538750       0.0000000       0.0000000           RCH-1      
     77     (1,3,21)              2.8538750       0.0000000       0.0000000           RCH-1      
     78     (1,3,22)              2.8538750       0.0000000       0.0000000           RCH-1      
     79     (1,3,23)              2.8538750       0.0000000       0.0000000           RCH-1      
     80     (1,3,24)              2.8538750       0.0000000       0.0000000           RCH-1      
     81     (1,3,25)              2.8538750       0.0000000       0.0000000           RCH-1      
     82     (1,3,26)              2.8538750       0.0000000       0.0000000           RCH-1      
     83     (1,3,27)              2.8538750       0.0000000       0.0000000           RCH-1      
     84     (1,3,28)              2.8538750       0.0000000       0.0000000           RCH-1      
     85     (1,4,1)               2.8538750       0.0000000       0.0000000           RCH-1      
     86     (1,4,2)               2.8538750       0.0000000       0.0000000           RCH-1      
     87     (1,4,3)               2.8538750       0.0000000       0.0000000           RCH-1      
     88     (1,4,4)               2.8538750       0.0000000       0.0000000           RCH-1      
     89     (1,4,5)               2.8538750       0.0000000       0.0000000           RCH-1      
     90     (1,4,6)               2.8538750       0.0000000       0.0000000           RCH-1      
     91     (1,4,7)               2.8538750       0.0000000       0.0000000           RCH-1      
     92     (1,4,8)               2.8538750       0.0000000       0.0000000           RCH-1      
     93     (1,4,9)               2.8538750       0.0000000       0.0000000           RCH-1      
     94     (1,4,10)              2.8538750       0.0000000       0.0000000           RCH-1      
     95     (1,4,11)              2.8538750       0.0000000       0.0000000           RCH-1      
     96     (1,4,12)              2.8538750       0.0000000       0.0000000           RCH-1      
     97     (1,4,13)              2.8538750       0.0000000       0.0000000           RCH-1      
     98     (1,4,14)              2.8538750       0.0000000       0.0000000           RCH-1      
     99     (1,4,15)              2.8538750       0.0000000       0.0000000           RCH-1      
    100     (1,4,16)              2.8538750       0.0000000       0.0000000           RCH-1      
    101     (1,4,17)              2.8538750       0.0000000       0.0000000           RCH-1      
    102     (1,4,18)              2.8538750       0.0000000       0.0000000           RCH-1      
    103     (1,4,19)              2.8538750       0.0000000       0.0000000           RCH-1      
    104     (1,4,20)              2.8538750       0.0000000       0.0000000           RCH-1      
    105     (1,4,21)              2.8538750       0.0000000       0.0000000           RCH-1      
    106     (1,4,22)              2.8538750       0.0000000       0.0000000           RCH-1      
    107     (1,4,23)              2.8538750       0.0000000       0.0000000           RCH-1      
    108     (1,4,24)              2.8538750       0.0000000       0.0000000           RCH-1      
    109     (1,4,25)              2.8538750       0.0000000       0.0000000           RCH-1      
    110     (1,4,26)              2.8538750       0.0000000       0.0000000           RCH-1      
    111     (1,4,27)              2.8538750       0.0000000       0.0000000           RCH-1      
    112     (1,4,28)              2.8538750       0.0000000       0.0000000           RCH-1      
    113     (1,5,1)               2.8538750       0.0000000       0.0000000           RCH-1      
    114     (1,5,2)               2.8538750       0.0000000       0.0000000           RCH-1      
    115     (1,5,3)               2.8538750       0.0000000       0.0000000           RCH-1      
    116     (1,5,4)               2.8538750       0.0000000       0.0000000           RCH-1      
    117     (1,5,5)               2.8538750       0.0000000       0.0000000           RCH-1      
    118     (1,5,6)               2.8538750       0.0000000       0.0000000           RCH-1      
    119     (1,5,7)               2.8538750       0.0000000       0.0000000           RCH-1      
    120     (1,5,8)               2.8538750       0.0000000       0.0000000           RCH-1      
    121     (1,5,9)               2.8538750       0.0000000       0.0000000           RCH-1      
    122     (1,5,10)              2.8538750       0.0000000       0.0000000           RCH-1      
    123     (1,5,11)              2.8538750       0.0000000       0.0000000           RCH-1      
    124     (1,5,12)              2.8538750       0.0000000       0.0000000           RCH-1      
    125     (1,5,13)              2.8538750       0.0000000       0.0000000           RCH-1      
    126     (1,5,14)              2.8538750       0.0000000       0.0000000           RCH-1      
    127     (1,5,15)              2.8538750       0.0000000       0.0000000           RCH-1      
    128     (1,5,16)              2.8538750       0.0000000       0.0000000           RCH-1      
    129     (1,5,17)              2.8538750       0.0000000       0.0000000           RCH-1      
    130     (1,5,18)              2.8538750       0.0000000       0.0000000           RCH-1      
    131     (1,5,19)              2.8538750       0.0000000       0.0000000           RCH-1      
    132     (1,5,20)              2.8538750       0.0000000       0.0000000           RCH-1      
    133     (1,5,21)              2.8538750       0.0000000       0.0000000           RCH-1      
    134     (1,5,22)              2.8538750       0.0000000       0.0000000           RCH-1      
    135     (1,5,23)              2.8538750       0.0000000       0.0000000           RCH-1      
    136     (1,5,24)              2.8538750       0.0000000       0.0000000           RCH-1      
    137     (1,5,25)              2.8538750       0.0000000       0.0000000           RCH-1      
    138     (1,5,26)              2.8538750       0.0000000       0.0000000           RCH-1      
    139     (1,5,27)              2.8538750       0.0000000       0.0000000           RCH-1      
    140     (1,5,28)              2.8538750       0.0000000       0.0000000           RCH-1      
    141     (1,6,1)               2.8538750       0.0000000       0.0000000           RCH-1      
    142     (1,6,2)               2.8538750       0.0000000       0.0000000           RCH-1      
    143     (1,6,3)               2.8538750       0.0000000       0.0000000           RCH-1      
    144     (1,6,4)               2.8538750       0.0000000       0.0000000           RCH-1      
    145     (1,6,5)               2.8538750       0.0000000       0.0000000           RCH-1      
    146     (1,6,6)               2.8538750       0.0000000       0.0000000           RCH-1      
    147     (1,6,7)               2.8538750       0.0000000       0.0000000           RCH-1      
    148     (1,6,8)               2.8538750       0.0000000       0.0000000           RCH-1      
    149     (1,6,9)               2.8538750       0.0000000       0.0000000           RCH-1      
    150     (1,6,10)              2.8538750       0.0000000       0.0000000           RCH-1      
    151     (1,6,11)              2.8538750       0.0000000       0.0000000           RCH-1      
    152     (1,6,12)              2.8538750       0.0000000       0.0000000           RCH-1      
    153     (1,6,13)              2.8538750       0.0000000       0.0000000           RCH-1      
    154     (1,6,14)              2.8538750       0.0000000       0.0000000           RCH-1      
    155     (1,6,15)              2.8538750       0.0000000       0.0000000           RCH-1      
    156     (1,6,16)              2.8538750       0.0000000       0.0000000           RCH-1      
    157     (1,6,17)              2.8538750       0.0000000       0.0000000           RCH-1      
    158     (1,6,18)              2.8538750       0.0000000       0.0000000           RCH-1      
    159     (1,6,19)              2.8538750       0.0000000       0.0000000           RCH-1      
    160     (1,6,20)              2.8538750       0.0000000       0.0000000           RCH-1      
    161     (1,6,21)              2.8538750       0.0000000       0.0000000           RCH-1      
    162     (1,6,22)              2.8538750       0.0000000       0.0000000           RCH-1      
    163     (1,6,23)              2.8538750       0.0000000       0.0000000           RCH-1      
    164     (1,6,24)              2.8538750       0.0000000       0.0000000           RCH-1      
    165     (1,6,25)              2.8538750       0.0000000       0.0000000           RCH-1      
    166     (1,6,26)              2.8538750       0.0000000       0.0000000           RCH-1      
    167     (1,6,27)              2.8538750       0.0000000       0.0000000           RCH-1      
    168     (1,6,28)              2.8538750       0.0000000       0.0000000           RCH-1      
    169     (1,7,1)               2.8538750       0.0000000       0.0000000           RCH-1      
    170     (1,7,2)               2.8538750       0.0000000       0.0000000           RCH-1      
    171     (1,7,3)               2.8538750       0.0000000       0.0000000           RCH-1      
    172     (1,7,4)               2.8538750       0.0000000       0.0000000           RCH-1      
    173     (1,7,5)               2.8538750       0.0000000       0.0000000           RCH-1      
    174     (1,7,6)               2.8538750       0.0000000       0.0000000           RCH-1      
    175     (1,7,7)               2.8538750       0.0000000       0.0000000           RCH-1      
    176     (1,7,8)               2.8538750       0.0000000       0.0000000           RCH-1      
    177     (1,7,9)               2.8538750       0.0000000       0.0000000           RCH-1      
    178     (1,7,10)              2.8538750       0.0000000       0.0000000           RCH-1      
    179     (1,7,11)              2.8538750       0.0000000       0.0000000           RCH-1      
    180     (1,7,12)              2.8538750       0.0000000       0.0000000           RCH-1      
    181     (1,7,13)              2.8538750       0.0000000       0.0000000           RCH-1      
    182     (1,7,14)              2.8538750       0.0000000       0.0000000           RCH-1      
    183     (1,7,15)              2.8538750       0.0000000       0.0000000           RCH-1      
    184     (1,7,16)              2.8538750       0.0000000       0.0000000           RCH-1      
    185     (1,7,17)              2.8538750       0.0000000       0.0000000           RCH-1      
    186     (1,7,18)              2.8538750       0.0000000       0.0000000           RCH-1      
    187     (1,7,19)              2.8538750       0.0000000       0.0000000           RCH-1      
    188     (1,7,20)              2.8538750       0.0000000       0.0000000           RCH-1      
    189     (1,7,21)              2.8538750       0.0000000       0.0000000           RCH-1      
    190     (1,7,22)              2.8538750       0.0000000       0.0000000           RCH-1      
    191     (1,7,23)              2.8538750       0.0000000       0.0000000           RCH-1      
    192     (1,7,24)              2.8538750       0.0000000       0.0000000           RCH-1      
    193     (1,7,25)              2.8538750       0.0000000       0.0000000           RCH-1      
    194     (1,7,26)              2.8538750       0.0000000       0.0000000           RCH-1      
    195     (1,7,27)              2.8538750       0.0000000       0.0000000           RCH-1      
    196     (1,7,28)              2.8538750       0.0000000       0.0000000           RCH-1      
    197     (1,8,1)               2.8538750       0.0000000       0.0000000           RCH-1      
    198     (1,8,2)               2.8538750       0.0000000       0.0000000           RCH-1      
    199     (1,8,3)               2.8538750       0.0000000       0.0000000           RCH-1      
    200     (1,8,4)               2.8538750       0.0000000       0.0000000           RCH-1      
    201     (1,8,5)               2.8538750       0.0000000       0.0000000           RCH-1      
    202     (1,8,6)               2.8538750       0.0000000       0.0000000           RCH-1      
    203     (1,8,7)               2.8538750       0.0000000       0.0000000           RCH-1      
    204     (1,8,8)               2.8538750       0.0000000       0.0000000           RCH-1      
    205     (1,8,9)               2.8538750       0.0000000       0.0000000           RCH-1      
    206     (1,8,10)              2.8538750       0.0000000       0.0000000           RCH-1      
    207     (1,8,11)              2.8538750       0.0000000       0.0000000           RCH-1      
    208     (1,8,12)              2.8538750       0.0000000       0.0000000           RCH-1      
    209     (1,8,13)              2.8538750       0.0000000       0.0000000           RCH-1      
    210     (1,8,14)              2.8538750       0.0000000       0.0000000           RCH-1      
    211     (1,8,15)              2.8538750       0.0000000       0.0000000           RCH-1      
    212     (1,8,16)              2.8538750       0.0000000       0.0000000           RCH-1      
    213     (1,8,17)              2.8538750       0.0000000       0.0000000           RCH-1      
    214     (1,8,18)              2.8538750       0.0000000       0.0000000           RCH-1      
    215     (1,8,19)              2.8538750       0.0000000       0.0000000           RCH-1      
    216     (1,8,20)              2.8538750       0.0000000       0.0000000           RCH-1      
    217     (1,8,21)              2.8538750       0.0000000       0.0000000           RCH-1      
    218     (1,8,22)              2.8538750       0.0000000       0.0000000           RCH-1      
    219     (1,8,23)              2.8538750       0.0000000       0.0000000           RCH-1      
    220     (1,8,24)              2.8538750       0.0000000       0.0000000           RCH-1      
    221     (1,8,25)              2.8538750       0.0000000       0.0000000           RCH-1      
    222     (1,8,26)              2.8538750       0.0000000       0.0000000           RCH-1      
    223     (1,8,27)              2.8538750       0.0000000       0.0000000           RCH-1      
    224     (1,8,28)              2.8538750       0.0000000       0.0000000           RCH-1      
    225     (1,9,1)               2.8538750       0.0000000       0.0000000           RCH-1      
    226     (1,9,2)               2.8538750       0.0000000       0.0000000           RCH-1      
    227     (1,9,3)               2.8538750       0.0000000       0.0000000           RCH-1      
    228     (1,9,4)               2.8538750       0.0000000       0.0000000           RCH-1      
    229     (1,9,5)               2.8538750       0.0000000       0.0000000           RCH-1      
    230     (1,9,6)               2.8538750       0.0000000       0.0000000           RCH-1      
    231     (1,9,7)               2.8538750       0.0000000       0.0000000           RCH-1      
    232     (1,9,8)               2.8538750       0.0000000       0.0000000           RCH-1      
    233     (1,9,9)               2.8538750       0.0000000       0.0000000           RCH-1      
    234     (1,9,10)              2.8538750       0.0000000       0.0000000           RCH-1      
    235     (1,9,11)              2.8538750       0.0000000       0.0000000           RCH-1      
    236     (1,9,12)              2.8538750       0.0000000       0.0000000           RCH-1      
    237     (1,9,13)              2.8538750       0.0000000       0.0000000           RCH-1      
    238     (1,9,14)              2.8538750       0.0000000       0.0000000           RCH-1      
    239     (1,9,15)              2.8538750       0.0000000       0.0000000           RCH-1      
    240     (1,9,16)              2.8538750       0.0000000       0.0000000           RCH-1      
    241     (1,9,17)              2.8538750       0.0000000       0.0000000           RCH-1      
    242     (1,9,18)              2.8538750       0.0000000       0.0000000           RCH-1      
    243     (1,9,19)              2.8538750       0.0000000       0.0000000           RCH-1      
    244     (1,9,20)              2.8538750       0.0000000       0.0000000           RCH-1      
    245     (1,9,21)              2.8538750       0.0000000       0.0000000           RCH-1      
    246     (1,9,22)              2.8538750       0.0000000       0.0000000           RCH-1      
    247     (1,9,23)              2.8538750       0.0000000       0.0000000           RCH-1      
    248     (1,9,24)              2.8538750       0.0000000       0.0000000           RCH-1      
    249     (1,9,25)              2.8538750       0.0000000       0.0000000           RCH-1      
    250     (1,9,26)              2.8538750       0.0000000       0.0000000           RCH-1      
    251     (1,9,27)              2.8538750       0.0000000       0.0000000           RCH-1      
    252     (1,9,28)              2.8538750       0.0000000       0.0000000           RCH-1      
    253     (1,10,1)              2.8538750       0.0000000       0.0000000           RCH-1      
    254     (1,10,2)              2.8538750       0.0000000       0.0000000           RCH-1      
    255     (1,10,3)              2.8538750       0.0000000       0.0000000           RCH-1      
    256     (1,10,4)              2.8538750       0.0000000       0.0000000           RCH-1      
    257     (1,10,5)              2.8538750       0.0000000       0.0000000           RCH-1      
    258     (1,10,6)              2.8538750       0.0000000       0.0000000           RCH-1      
    259     (1,10,7)              2.8538750       0.0000000       0.0000000           RCH-1      
    260     (1,10,8)              2.8538750       0.0000000       0.0000000           RCH-1      
    261     (1,10,9)              2.8538750       0.0000000       0.0000000           RCH-1      
    262     (1,10,10)             2.8538750       0.0000000       0.0000000           RCH-1      
    263     (1,10,11)             2.8538750       0.0000000       0.0000000           RCH-1      
    264     (1,10,12)             2.8538750       0.0000000       0.0000000           RCH-1      
    265     (1,10,13)             2.8538750       0.0000000       0.0000000           RCH-1      
    266     (1,10,14)             2.8538750       0.0000000       0.0000000           RCH-1      
    267     (1,10,15)             2.8538750       0.0000000       0.0000000           RCH-1      
    268     (1,10,16)             2.8538750       0.0000000       0.0000000           RCH-1      
    269     (1,10,17)             2.8538750       0.0000000       0.0000000           RCH-1      
    270     (1,10,18)             2.8538750       0.0000000       0.0000000           RCH-1      
    271     (1,10,19)             2.8538750       0.0000000       0.0000000           RCH-1      
    272     (1,10,20)             2.8538750       0.0000000       0.0000000           RCH-1      
    273     (1,10,21)             2.8538750       0.0000000       0.0000000           RCH-1      
    274     (1,10,22)             2.8538750       0.0000000       0.0000000           RCH-1      
    275     (1,10,23)             2.8538750       0.0000000       0.0000000           RCH-1      
    276     (1,10,24)             2.8538750       0.0000000       0.0000000           RCH-1      
    277     (1,10,25)             2.8538750       0.0000000       0.0000000           RCH-1      
    278     (1,10,26)             2.8538750       0.0000000       0.0000000           RCH-1      
    279     (1,10,27)             2.8538750       0.0000000       0.0000000           RCH-1      
    280     (1,10,28)             2.8538750       0.0000000       0.0000000           RCH-1      
    281     (1,11,1)              2.8538750       0.0000000       0.0000000           RCH-1      
    282     (1,11,2)              2.8538750       0.0000000       0.0000000           RCH-1      
    283     (1,11,3)              2.8538750       0.0000000       0.0000000           RCH-1      
    284     (1,11,4)              2.8538750       0.0000000       0.0000000           RCH-1      
    285     (1,11,5)              2.8538750       0.0000000       0.0000000           RCH-1      
    286     (1,11,6)              2.8538750       0.0000000       0.0000000           RCH-1      
    287     (1,11,7)              2.8538750       0.0000000       0.0000000           RCH-1      
    288     (1,11,8)              2.8538750       0.0000000       0.0000000           RCH-1      
    289     (1,11,9)              2.8538750       0.0000000       0.0000000           RCH-1      
    290     (1,11,10)             2.8538750       0.0000000       0.0000000           RCH-1      
    291     (1,11,11)             2.8538750       0.0000000       0.0000000           RCH-1      
    292     (1,11,12)             2.8538750       0.0000000       0.0000000           RCH-1      
    293     (1,11,13)             2.8538750       0.0000000       0.0000000           RCH-1      
    294     (1,11,14)             2.8538750       0.0000000       0.0000000           RCH-1      
    295     (1,11,15)             2.8538750       0.0000000       0.0000000           RCH-1      
    296     (1,11,16)             2.8538750       0.0000000       0.0000000           RCH-1      
    297     (1,11,17)             2.8538750       0.0000000       0.0000000           RCH-1      
    298     (1,11,18)             2.8538750       0.0000000       0.0000000           RCH-1      
    299     (1,11,19)             2.8538750       0.0000000       0.0000000           RCH-1      
    300     (1,11,20)             2.8538750       0.0000000       0.0000000           RCH-1      
    301     (1,11,21)             2.8538750       0.0000000       0.0000000           RCH-1      
    302     (1,11,22)             2.8538750       0.0000000       0.0000000           RCH-1      
    303     (1,11,23)             2.8538750       0.0000000       0.0000000           RCH-1      
    304     (1,11,24)             2.8538750       0.0000000       0.0000000           RCH-1      
    305     (1,11,25)             2.8538750       0.0000000       0.0000000           RCH-1      
    306     (1,11,26)             2.8538750       0.0000000       0.0000000           RCH-1      
    307     (1,11,27)             2.8538750       0.0000000       0.0000000           RCH-1      
    308     (1,11,28)             2.8538750       0.0000000       0.0000000           RCH-1      
    309     (1,12,1)              2.8538750       0.0000000       0.0000000           RCH-1      
    310     (1,12,2)              2.8538750       0.0000000       0.0000000           RCH-1      
    311     (1,12,3)              2.8538750       0.0000000       0.0000000           RCH-1      
    312     (1,12,4)              2.8538750       0.0000000       0.0000000           RCH-1      
    313     (1,12,5)              2.8538750       0.0000000       0.0000000           RCH-1      
    314     (1,12,6)              2.8538750       0.0000000       0.0000000           RCH-1      
    315     (1,12,7)              2.8538750       0.0000000       0.0000000           RCH-1      
    316     (1,12,8)              2.8538750       0.0000000       0.0000000           RCH-1      
    317     (1,12,9)              2.8538750       0.0000000       0.0000000           RCH-1      
    318     (1,12,10)             2.8538750       0.0000000       0.0000000           RCH-1      
    319     (1,12,11)             2.8538750       0.0000000       0.0000000           RCH-1      
    320     (1,12,12)             2.8538750       0.0000000       0.0000000           RCH-1      
    321     (1,12,13)             2.8538750       0.0000000       0.0000000           RCH-1      
    322     (1,12,14)             2.8538750       0.0000000       0.0000000           RCH-1      
    323     (1,12,15)             2.8538750       0.0000000       0.0000000           RCH-1      
    324     (1,12,16)             2.8538750       0.0000000       0.0000000           RCH-1      
    325     (1,12,17)             2.8538750       0.0000000       0.0000000           RCH-1      
    326     (1,12,18)             2.8538750       0.0000000       0.0000000           RCH-1      
    327     (1,12,19)             2.8538750       0.0000000       0.0000000           RCH-1      
    328     (1,12,20)             2.8538750       0.0000000       0.0000000           RCH-1      
    329     (1,12,21)             2.8538750       0.0000000       0.0000000           RCH-1      
    330     (1,12,22)             2.8538750       0.0000000       0.0000000           RCH-1      
    331     (1,12,23)             2.8538750       0.0000000       0.0000000           RCH-1      
    332     (1,12,24)             2.8538750       0.0000000       0.0000000           RCH-1      
    333     (1,12,25)             2.8538750       0.0000000       0.0000000           RCH-1      
    334     (1,12,26)             2.8538750       0.0000000       0.0000000           RCH-1      
    335     (1,12,27)             2.8538750       0.0000000       0.0000000           RCH-1      
    336     (1,12,28)             2.8538750       0.0000000       0.0000000           RCH-1      
    337     (1,13,1)              2.8538750       0.0000000       0.0000000           RCH-1      
    338     (1,13,2)              2.8538750       0.0000000       0.0000000           RCH-1      
    339     (1,13,3)              2.8538750       0.0000000       0.0000000           RCH-1      
    340     (1,13,4)              2.8538750       0.0000000       0.0000000           RCH-1      
    341     (1,13,5)              2.8538750       0.0000000       0.0000000           RCH-1      
    342     (1,13,6)              2.8538750       0.0000000       0.0000000           RCH-1      
    343     (1,13,7)              2.8538750       0.0000000       0.0000000           RCH-1      
    344     (1,13,8)              2.8538750       0.0000000       0.0000000           RCH-1      
    345     (1,13,9)              2.8538750       0.0000000       0.0000000           RCH-1      
    346     (1,13,10)             2.8538750       0.0000000       0.0000000           RCH-1      
    347     (1,13,11)             2.8538750       0.0000000       0.0000000           RCH-1      
    348     (1,13,12)             2.8538750       0.0000000       0.0000000           RCH-1      
    349     (1,13,13)             2.8538750       0.0000000       0.0000000           RCH-1      
    350     (1,13,14)             2.8538750       0.0000000       0.0000000           RCH-1      
    351     (1,13,15)             2.8538750       0.0000000       0.0000000           RCH-1      
    352     (1,13,16)             2.8538750       0.0000000       0.0000000           RCH-1      
    353     (1,13,17)             2.8538750       0.0000000       0.0000000           RCH-1      
    354     (1,13,18)             2.8538750       0.0000000       0.0000000           RCH-1      
    355     (1,13,19)             2.8538750       0.0000000       0.0000000           RCH-1      
    356     (1,13,20)             2.8538750       0.0000000       0.0000000           RCH-1      
    357     (1,13,21)             2.8538750       0.0000000       0.0000000           RCH-1      
    358     (1,13,22)             2.8538750       0.0000000       0.0000000           RCH-1      
    359     (1,13,23)             2.8538750       0.0000000       0.0000000           RCH-1      
    360     (1,13,24)             2.8538750       0.0000000       0.0000000           RCH-1      
    361     (1,13,25)             2.8538750       0.0000000       0.0000000           RCH-1      
    362     (1,13,26)             2.8538750       0.0000000       0.0000000           RCH-1      
    363     (1,13,27)             2.8538750       0.0000000       0.0000000           RCH-1      
    364     (1,13,28)             2.8538750       0.0000000       0.0000000           RCH-1      
    365     (1,14,1)              2.8538750       0.0000000       0.0000000           RCH-1      
    366     (1,14,2)              2.8538750       0.0000000       0.0000000           RCH-1      
    367     (1,14,3)              2.8538750       0.0000000       0.0000000           RCH-1      
    368     (1,14,4)              2.8538750       0.0000000       0.0000000           RCH-1      
    369     (1,14,5)              2.8538750       0.0000000       0.0000000           RCH-1      
    370     (1,14,6)              2.8538750       0.0000000       0.0000000           RCH-1      
    371     (1,14,7)              2.8538750       0.0000000       0.0000000           RCH-1      
    372     (1,14,8)              2.8538750       0.0000000       0.0000000           RCH-1      
    373     (1,14,9)              2.8538750       0.0000000       0.0000000           RCH-1      
    374     (1,14,10)             2.8538750       0.0000000       0.0000000           RCH-1      
    375     (1,14,11)             2.8538750       0.0000000       0.0000000           RCH-1      
    376     (1,14,12)             2.8538750       0.0000000       0.0000000           RCH-1      
    377     (1,14,13)             2.8538750       0.0000000       0.0000000           RCH-1      
    378     (1,14,14)             2.8538750       0.0000000       0.0000000           RCH-1      
    379     (1,14,15)             2.8538750       0.0000000       0.0000000           RCH-1      
    380     (1,14,16)             2.8538750       0.0000000       0.0000000           RCH-1      
    381     (1,14,17)             2.8538750       0.0000000       0.0000000           RCH-1      
    382     (1,14,18)             2.8538750       0.0000000       0.0000000           RCH-1      
    383     (1,14,19)             2.8538750       0.0000000       0.0000000           RCH-1      
    384     (1,14,20)             2.8538750       0.0000000       0.0000000           RCH-1      
    385     (1,14,21)             2.8538750       0.0000000       0.0000000           RCH-1      
    386     (1,14,22)             2.8538750       0.0000000       0.0000000           RCH-1      
    387     (1,14,23)             2.8538750       0.0000000       0.0000000           RCH-1      
    388     (1,14,24)             2.8538750       0.0000000       0.0000000           RCH-1      
    389     (1,14,25)             2.8538750       0.0000000       0.0000000           RCH-1      
    390     (1,14,26)             2.8538750       0.0000000       0.0000000           RCH-1      
    391     (1,14,27)             2.8538750       0.0000000       0.0000000           RCH-1      
    392     (1,14,28)             2.8538750       0.0000000       0.0000000           RCH-1      
    393     (1,15,1)              2.8538750       0.0000000       0.0000000           RCH-1      
    394     (1,15,2)              2.8538750       0.0000000       0.0000000           RCH-1      
[...]
   9     0.297195        0.414441        0.545472        0.685612        0.829174        0.972899         1.11470         1.25080         1.37499         1.48245    
          1.57027         1.63777         1.68751         1.72403         1.75536         1.79082         1.84473         1.94819         2.14930         2.33658    
          2.33913         2.17340         1.92607         1.68613         1.47774         1.29799         1.14052         1.00091    
  10     0.374783        0.517563        0.676158        0.845043         1.01843         1.19135         1.36191         1.52580         1.67596         1.80677    
          1.91467         1.99861         2.06104         2.10674         2.14414         2.18147         2.23205         2.32566         2.51255         2.67899    
          2.64697         2.43814         2.17013         1.91114         1.68003         1.47596         1.29506         1.13424    
  11     0.468338        0.641043        0.832020         1.03418         1.24131         1.44786         1.65153         1.84747         2.02775         2.18578    
          2.31732         2.42087         2.49877         2.55647         2.60249         2.64431         2.69531         2.78884         2.95805         3.11000    
          3.02333         2.74094         2.43485         2.14896         1.89168         1.66161         1.45629         1.27348    
  12     0.580853        0.788457         1.01631         1.25678         1.50268         1.74783         1.98948         2.22221         2.43722         2.62688    
          2.78611         2.91305         3.01022         3.08467         3.14640         3.20680         3.28967         3.44835         3.77694         3.92361    
          3.46944         3.07733         2.72110         2.40066         2.11288         1.85456         1.62354         1.41789    
  13     0.713708        0.962798         1.23323         1.51770         1.80804         2.09737         2.38241         2.65723         2.91208         3.13819    
          3.32948         3.48371         3.60402         3.70032         3.78648         3.88891         4.06693         4.38067         4.70290         4.46205    
          3.90853         3.43425         3.02513         2.66462         2.34258         2.05384         1.79586         1.56655    
  14     0.869329         1.16763         1.48729         1.82222         2.16340         2.50317         2.83766         3.16041         3.46075         3.72850    
          3.95629         4.14111         4.28738         4.40705         4.52150         4.69631         5.00978         5.38901         5.47871         4.96054    
          4.33370         3.79797         3.33906         2.93657         2.57815         2.25763         1.97161         1.71804    
  15      1.05005         1.40645         1.78304         2.17574         2.57493         2.97215         3.36289         3.74013         4.09226         4.40741    
          4.67624         4.89458         5.06648         5.20460         5.33849         5.58405         5.99100         6.26291         6.06672         5.41295    
          4.73951         4.15761         3.65409         3.21053         2.81542         2.46248         2.14810         1.87014    
  16      1.25794         1.68233         2.12468         2.58337         3.04854         3.51102         3.96562         4.40482         4.81602         5.18543    
          5.50098         5.75648         5.95189         6.09752         6.22625         6.47911         6.87506         6.94097         6.52749         5.81881    
          5.12147         4.50510         3.96220         3.47968         3.04873         2.66366         2.32134         2.01941    
  17      1.49453         1.99763         2.51557         3.04930         3.58921         4.12555         4.65248         5.16210         5.64108         6.07374    
          6.44527         6.74548         6.96736         7.11296         7.20840         7.36382         7.57639         7.45399         6.91781         6.19358    
          5.48157         4.83548         4.25609         3.73655         3.27093         2.85496         2.48586         2.16106    
  18      1.76066         2.35352         2.95771         3.57624         4.20026         4.81968         5.42814         6.01761         6.57457         7.08232    
          7.52455         7.88767         8.15848         8.32988         8.41785         8.45459         8.29620         7.94361         7.30892         6.55998    
          5.82342         5.14393         4.52770         3.97221         3.47362         3.02869         2.63476         2.28891    
  19      2.05619         2.74968         3.45116         4.16470         4.88254         5.59460         6.29413         6.97328         7.61912         8.21566    
          8.74834         9.20601         9.58300         9.89288         10.1979         10.4639         9.71616         8.60369         7.74687         6.92262    
          6.14105         5.42090         4.76644         4.17624         3.64704         3.17593         2.75998         2.39576    
  20      2.37987         3.18402         3.99371         4.81249         5.63386         6.44802         7.24791         8.02591         8.77028         9.46744    
          10.1084         10.6926         11.2425         11.8129         12.3949         12.2443         10.6196         9.22589         8.17644         7.25568    
          6.41611         5.65126         4.95910         4.33680         3.78058         3.28717         2.85302         2.47402    
  21      2.72917         3.65248         4.58052         5.51437         6.44860         7.37383         8.28255         9.16700         10.0162         10.8196    
          11.5743         12.2969         13.0600         13.8796         14.2075         13.2147         11.2097         9.69256         8.52259         7.52037    
          6.62491         5.81782         5.09195         4.44218         3.86405         3.35342         2.90591         2.51665    
  22      3.10017         4.14899         5.20412         6.26197         7.31768         8.36227         9.38746         10.3843         11.3413         12.2477    
          13.1033         13.9403         14.8829         15.6235         15.2581         13.6086         11.5521         9.99031         8.75103         7.68938    
          6.74828         5.90626         5.15336         4.48284         3.88931         3.36763         2.91249         2.51818    
  23      3.48742         4.66551         5.85445         7.04390         8.22876         9.40041         10.5495         11.6649         12.7319         13.7338    
          14.6641         15.5570         16.5273         16.7640         15.6264         13.6642         11.6854         10.1273         8.85155         7.74988    
          6.77547         5.90809         5.13656         4.45329         3.85180         3.32593         2.86942         2.47576    
  24      3.88397         5.19208         6.51909         7.84597         9.16648         10.4724         11.7538         12.9971         14.1826         15.2825    
          16.2711         17.1588         17.9795         17.2700         15.5172         13.5095         11.6484         10.1165         8.82480         7.69903    
          6.70378         5.82133         5.04056         4.35308         3.75145         3.22847         2.77701         2.38976    
  25      4.28132         5.71708         7.18352         8.65143         10.1124         11.5591         12.9821         14.3679         15.6947         16.9271    
          18.0193         18.9299         19.4442         17.3575         15.0894         13.2069         11.4671         9.96942         8.67612         7.54062    
          6.53709         5.65049         4.87013         4.18706         3.59293         3.07970         2.63937         2.26394    
  26      4.66963         6.22743         7.83150         9.44134         11.0453         12.6369         14.2096         15.7547         17.2588         18.7024    
          20.0690         21.3212         21.5768         16.8409         14.4512         12.7270         11.1290         9.68921         8.41358         7.28408    
          6.28538         5.40571         4.63522         3.96470         3.38519         2.88787         2.46408         2.10520    
  27      5.03789         6.70907         8.44575         10.1954         11.9414         13.6779         15.4023         17.1154         18.8240         20.5505    
          22.3008         23.5863         21.5064         16.1501         13.8263         12.1790         10.6788         9.29930         8.05524         6.94574    
          5.96404         5.10161         4.34969         3.69905         3.14031         2.66415         2.26134         1.92280    
  28      5.37422         7.14737         9.00870         10.8930         12.7768         14.6525         16.5205         18.3916         20.2995         22.3186    
          24.2783         24.1797         20.2149         15.5568         13.2661         11.6225         10.1671         8.83429         7.62666         6.54688    
          5.59193         4.75552         4.02958         3.40497         2.87207         2.42118         2.04271         1.72721    
  29      5.66601         7.52752         9.50339         11.5155         13.5304         15.5353         17.5285         19.5257         21.5836         23.8237    
          25.2812         23.3433         18.7839         14.8990         12.6897         11.0488         9.61790         8.32214         7.15262         6.10897    
          5.18831         4.38492         3.69097         3.09728         2.59410         2.17149         1.81961         1.52878    
  30      5.90011         7.83485         9.91407         12.0470         14.1874         16.3117         18.4089         20.4876         22.6104         24.8779    
          25.1424         21.7657         17.4098         14.1473         12.0563         10.4407         9.03797         7.78006         6.65223         5.65026    
          4.76999         4.00525         3.34800         2.78898         2.31831         1.92595         1.60192         1.33645    
  31      6.06311         8.05480         10.2262         12.4752         14.7403         16.9826         19.1743         21.3028         23.4070         25.4981    
          24.1638         19.9132         16.0910         13.3099         11.3545         9.78996         8.43007         7.21830         6.13852         5.18420    
          4.34978         3.62836         3.01157         2.49002         2.05377         1.69278         1.39705         1.15685    
  32      6.14179         8.17289         10.4258         12.7900         15.1877         17.5632         19.8706         22.0704         24.1344         25.7490    
          22.3763         17.8091         14.7381         12.3826         10.5834         9.09680         7.79794         6.64389         5.62023         4.71981    
          3.93627         3.26216         2.68883         2.20681         1.80621         1.47706         1.20951        0.993963    
  33      6.12409         8.17485         10.4985         12.9811         15.5291         18.0715         20.5559         22.9448         25.1572         25.9493    
          18.0117         15.2166         13.1603         11.3244         9.74318         8.36740         7.14803         6.06313         5.10340         4.26269    
          3.53445         2.91096         2.38346         1.94247         1.57824         1.28099         1.04110        0.849304    
  34      6.00045         8.04726         10.4294         13.0377         15.7615         18.5145         21.2531         23.9296         25.9861         23.1750    
          15.5888         13.3352         11.7531         10.2631         8.87817         7.62122         6.49077         5.48259         4.59268         3.81622    
          3.14678         2.57650         2.09657         1.69760         1.37006         1.10444        0.891515        0.722430    
  35      5.76542         7.77855         10.2033         12.9514         15.8830         18.8864         21.9412         24.7874         25.1091         19.9962    
          14.2623         12.0991         10.6250         9.28635         8.03251         6.87960         5.83750         4.90881         4.09202         3.38276    
          2.77445         2.25908         1.82778         1.47131         1.18040        0.945929        0.759129        0.611676    
  36      5.42021         7.36154         9.80667         12.7256         15.9040         19.1721         22.5925         24.8541         23.0767         17.5630    
          13.1837         11.1173         9.66506         8.39116         7.22205         6.15575         5.19717         4.34775         3.60524         2.96452    
          2.41844         1.95869         1.57633         1.26226         1.00753        0.803462        0.641818        0.514883    
  37      4.97510         6.79649         9.22927         12.3972         15.8678         19.3486         22.9606         24.0226         20.7192         15.6571    
          12.1581         10.2079         8.77757         7.54744         6.44460         5.45515         4.57620         3.80489         3.13649         2.56431    
          2.08036         1.67590         1.34191         1.06948        0.849985        0.675239        0.537583        0.429967    
  38      4.45071         6.09797         8.47722         12.0826         15.8754         19.4069         22.8975         22.5320         18.3788         14.0245    
          11.1242         9.29944         7.91150         6.73148         5.69447         4.78034         3.97986         3.28579         2.69058         2.18588    
          1.76279         1.41222         1.12511        0.892779        0.706978        0.560036        0.444908        0.355249    
  39      3.87652         5.31833         7.67621         12.0144         16.0495         19.3789         22.4902         20.7293         16.1852         12.5363    
          10.0605         8.36532         7.04462         5.93166         4.96937         4.13453         3.41374         2.79651         2.27307         1.83381    
          1.46924         1.17006        0.927373        0.732766        0.578440        0.457268        0.362851        0.289572    
  40      3.24356         4.41725         6.88536         12.1918         16.2584         19.2646         21.3740         18.2778         13.8954         11.0543    
          8.94447         7.39615         6.17131         5.14654         4.27177         3.52285         2.88421         2.34351         1.88985         1.51308    
          1.20359        0.952289        0.750586        0.590506        0.464760        0.366813        0.290938        0.232248    
  41      2.40541         2.91599         3.49353         9.67124         15.6864         18.1426         18.3615         12.2122         11.0312         9.39769    
          7.74077         6.39245         5.29756         4.38209         3.60772         2.95165         2.39761         1.93274         1.54612         1.22796    
         0.969210        0.761349        0.596396        0.466963        0.366363        0.288704        0.228940        0.182891    
  42      1.59109         1.65334         1.68647         3.76692         9.68836         12.3362         9.99659         9.64929         9.30819         8.07065    
          6.57785         5.39501         4.44159         3.64829         2.98422         2.42670         1.95887         1.56829         1.24516        0.980992    
         0.767924        0.598483        0.465548        0.362488        0.283316        0.222820        0.176628        0.141211    
  43      1.01859        0.989810        0.961463         1.31304         2.72981         3.41031         3.13956         6.55522         8.58423         7.28833    
          5.55852         4.44058         3.61627         2.95108         2.40583         1.95171         1.57060         1.25170        0.987690        0.772325    
         0.599557        0.463305        0.357549        0.276551        0.215102        0.168689        0.133585        0.106847    
  44     0.685372        0.696342        0.749533        0.947896         1.31934         1.60301         1.70416         1.81587         4.46155         4.84373    
          3.69831         3.18331         2.72031         2.26698         1.87027         1.52794         1.23318        0.982103        0.772039        0.599960    
         0.462072        0.353928        0.270745        0.207768        0.160602        0.125429        9.912447E-02    7.926215E-02
  45     0.507373        0.562123        0.660699        0.850175         1.07515         1.13542         1.16717        0.979046        0.778095         1.09016    
          1.40425         1.59768         1.68851         1.58121         1.38071         1.15918        0.947648        0.758350        0.595920        0.461196    
         0.352784        0.267908        0.203036        0.154408        0.118434        9.196345E-02    7.241852E-02    5.781561E-02

 CONCENTRATION WILL BE SAVED ON UNIT 1056 AT END OF TIME STEP  500, STRESS PERIOD    1


  MASS BUDGET FOR ENTIRE MODEL AT END OF TIME STEP  500, STRESS PERIOD   1
  ---------------------------------------------------------------------------------------------------

     CUMULATIVE MASS      M       RATES FOR THIS TIME STEP      M/T          PACKAGE NAME    
     ------------------                 ------------------------                     ----------------

           IN:                                      IN:
           ---                                      ---
     STORAGE-AQUEOUS =  2080495606.9153       STORAGE-AQUEOUS =      699538.9657     MST                              
      STORAGE-SORBED =  2074947618.6302        STORAGE-SORBED =      697673.5284     MST                              
                 WEL =           0.0000                   WEL =           0.0000     SSM_WEL-1                        
                RCHA =           0.0000                  RCHA =           0.0000     SSM_RCH-1                        
        FLOW-JA-FACE =   641765977.6262          FLOW-JA-FACE =      148789.3376     GWT-GWT_2                        

            TOTAL IN =  4797209203.1716              TOTAL IN =     1546001.8318

          OUT:                                     OUT:
          ----                                     ----
     STORAGE-AQUEOUS =   709730316.0627       STORAGE-AQUEOUS =       38208.2059     MST                              
      STORAGE-SORBED =   707837701.8866        STORAGE-SORBED =       38106.3173     MST                              
                 WEL =  3372790857.6415                   WEL =     1464339.8542     SSM_WEL-1                        
                RCHA =           0.0000                  RCHA =           0.0000     SSM_RCH-1                        
        FLOW-JA-FACE =     6850327.5808          FLOW-JA-FACE =        5347.4544     GWT-GWT_2                        

           TOTAL OUT =  4797209203.1716             TOTAL OUT =     1546001.8318

            IN - OUT =       1.3351E-05              IN - OUT =       5.1223E-09

 PERCENT DISCREPANCY =           0.00     PERCENT DISCREPANCY =           0.00




         TIME SUMMARY AT END OF TIME STEP  500 IN STRESS PERIOD    1
                    SECONDS     MINUTES      HOURS       DAYS        YEARS
                    -----------------------------------------------------------
   TIME STEP LENGTH 1.72800E+05  2880.0      48.000      2.0000     5.47570E-03
 STRESS PERIOD TIME 8.64000E+07 1.44000E+06  24000.      1000.0      2.7379    
         TOTAL TIME 8.64000E+07 1.44000E+06  24000.      1000.0      2.7379    


end timestep

