                                   MODFLOW 6
                U.S. GEOLOGICAL SURVEY MODULAR HYDROLOGIC MODEL
                             TRANSPORT MODEL (GWT)
                            VERSION 6.6.0 12/20/2024

   MODFLOW 6 compiled Dec 31 2024 17:10:16 with Intel(R) Fortran Intel(R) 64
   Compiler Classic for applications running on Intel(R) 64, Version 2021.7.0
                             Build 20220726_000000

This software has been approved for release by the U.S. Geological 
Survey (USGS). Although the software has been subjected to rigorous 
review, the USGS reserves the right to update the software as needed 
pursuant to further analysis and review. No warranty, expressed or 
implied, is made by the USGS or the U.S. Government as to the 
functionality of the software and related material nor shall the 
fact of release constitute any such warranty. Furthermore, the 
software is released on condition that neither the USGS nor the U.S. 
Government shall be held liable for any damages resulting from its 
authorized or unauthorized use. Also refer to the USGS Water 
Resources Software User Rights Notice for complete use, copyright, 
and distribution information.


As a work of the United States Government, this USGS product is 
in the public domain within the United States. You can copy, 
modify, distribute, and perform the work, even for commercial 
purposes, all without asking permission. Additionally, USGS 
waives copyright and related rights in the work worldwide 
through CC0 1.0 Universal Public Domain Dedication 
(https://creativecommons.org/publicdomain/zero/1.0/).

The following GNU Lesser General Public License (LGPL) libraries
are used in this USGS product:

    SPARSKIT version 2.0
      ilut, luson, and qsplit 
      (https://www-users.cse.umn.edu/~saad/software/SPARSKIT/)

    RCM - Reverse Cuthill McKee Ordering
      (https://people.math.sc.edu/Burkardt/f_src/rcm/rcm.html)

    BLAS - Basic Linear Algebra Subprograms Level 1
      (https://people.math.sc.edu/Burkardt/f_src/blas1_d/blas1_d.html)

    SPARSEKIT - Sparse Matrix Utility Package
      amux, dperm, dvperm, rperm, and cperm
      (https://people.sc.fsu.edu/~jburkardt/f77_src/sparsekit/sparsekit.html)

The following BSD-3 License libraries are used in this USGS product:

    Modern Fortran DAG Library
      Copyright (c) 2018, Jacob Williams
      All rights reserved.
      (https://github.com/jacobwilliams/daglib)

MODFLOW 6 compiler options: /O2 /heap-arrays:0 /fpe:0 /traceback /nologo /fpp
/c /module:win64\mod_mf6\ /object:win64\obj_mf6\

System command used to initiate simulation:
C:\Users\gross.DESKTOP-AIRQM2M\anaconda3\Scripts\mf6.exe

MODFLOW was compiled using uniform precision.

Real Variables
  KIND: 8
  TINY (smallest non-zero value):    2.225074-308
  HUGE (largest value):    1.797693+308
  PRECISION: 15
  SIZE IN BITS: 64

Integer Variables
  KIND: 4
  HUGE (largest value): 2147483647
  SIZE IN BITS: 32

Long Integer Variables
  KIND: 8
  HUGE (largest value): 9223372036854775807
  SIZE IN BITS: 64

Logical Variables
  KIND: 4
  SIZE IN BITS: 32
 
 NAMEFILE OPTIONS:
    FLOWS WILL BE SAVED TO BUDGET FILE SPECIFIED IN OUTPUT CONTROL
 END NAMEFILE OPTIONS:

 DIS -- STRUCTURED GRID DISCRETIZATION PACKAGE, VERSION 2 : 3/27/2014 - INPUT READ FROM MEMPATH: __INPUT__/GWT_P04-MF6/DIS                         


 DSP-- DISPERSION PACKAGE, VERSION 1, 1/24/2018 INPUT READ FROM MEMPATH: __INPUT__/GWT_P04-MF6/DSP                         


 Setting Discretization Options
 End Setting Discretization Options

 Setting Discretization Dimensions
    NLAY = 1
    NROW = 100
    NCOL = 100
 End Setting Discretization Dimensions

 Setting Discretization Griddata
    DELR set from input file
    DELC set from input file
    TOP set from input file
    BOTM set from input file
    IDOMAIN set from input file
 End Setting Discretization Griddata


 FMI -- FLOW MODEL INTERFACE,' VERSION 2, 8/17/2023
  FLOWS PROVIDED BY A GWF MODEL IN THIS SIMULATION

 ADV-- ADVECTION PACKAGE, VERSION 1, 8/25/2017 INPUT READ FROM UNIT 1015


 # File generated by Flopy version 3.9.1 on 02/24/2025 at 17:16:45.
 PROCESSING ADVECTION OPTIONS
    ADVECTION WEIGHTING SCHEME HAS BEEN SET TO: UPSTREAM
 END OF ADVECTION OPTIONS
 Setting DSP Options
    XT3D formulation [0=INACTIVE, 1=ACTIVE, 3=ACTIVE RHS] set to: 0
 End Setting DSP Options

 Setting DSP Griddata
    ALH set from input file
    ATH1 set from input file
 End Setting DSP Griddata

    STRT set from input file

 MST -- MOBILE STORAGE AND TRANSFER PACKAGE, VERSION 1, 7/29/2020 INPUT READ FROM UNIT 1014


 # File generated by Flopy version 3.9.1 on 02/24/2025 at 17:16:45.
 PROCESSING MOBILE STORAGE AND TRANSFER OPTIONS
 END OF MOBILE STORAGE AND TRANSFER OPTIONS
 PROCESSING GRIDDATA

   MOBILE DOMAIN POROSITY =  0.1400000    
 END PROCESSING GRIDDATA

 SSM -- SOURCE-SINK MIXING PACKAGE, VERSION 1, 8/25/2017 INPUT READ FROM UNIT 1017


 # File generated by Flopy version 3.9.1 on 02/24/2025 at 17:16:45.
 PROCESSING SSM OPTIONS
 END OF SSM OPTIONS
 PROCESSING SOURCES
 AUX SOURCE DETECTED.
    USING AUX COLUMN 1 IN PACKAGE WEL-1
 END PROCESSING SOURCES
 OPTIONAL FILEINPUT BLOCK NOT FOUND.  CONTINUING.
      THE LAST TIME STEP WILL BE PRINTED
      THE LAST TIME STEP WILL BE PRINTED
 # File generated by Flopy version 3.9.1 on 02/24/2025 at 17:16:45.

 PROCESSING OC OPTIONS

    BUDGET INFORMATION WILL BE WRITTEN TO:
      UNIT NUMBER: 1027
      FILE NAME: gwt_p04-mf6.cbc

 OPENED gwt_p04-mf6.cbc
 FILE TYPE:DATA(BINARY)   UNIT 1027   STATUS:REPLACE             
 FORMAT:UNFORMATTED            ACCESS:STREAM              
 ACTION:READWRITE           

    CONCENTRATION INFORMATION WILL BE WRITTEN TO:
      UNIT NUMBER: 1028
      FILE NAME: gwt_p04-mf6.ucn

 OPENED gwt_p04-mf6.ucn
 FILE TYPE:DATA(BINARY)   UNIT 1028   STATUS:REPLACE             
 FORMAT:UNFORMATTED            ACCESS:STREAM              
 ACTION:READWRITE           

 END OF OC OPTIONS

start timestep kper="1" kstp="1" mode="normal"


 BEGIN READING OUTPUT CONTROL FOR STRESS PERIOD 1
      THE LAST TIME STEP WILL BE SAVED
      THE LAST TIME STEP WILL BE SAVED
      THE LAST TIME STEP WILL BE PRINTED
      THE LAST TIME STEP WILL BE PRINTED

 END READING OUTPUT CONTROL FOR STRESS PERIOD 1

end timestep


start timestep kper="1" kstp="2" mode="normal"


end timestep


start timestep kper="1" kstp="3" mode="normal"


end timestep


start timestep kper="1" kstp="4" mode="normal"


end timestep


start timestep kper="1" kstp="5" mode="normal"


end timestep


start timestep kper="1" kstp="6" mode="normal"


end timestep


start timestep kper="1" kstp="7" mode="normal"


end timestep


start timestep kper="1" kstp="8" mode="normal"


end timestep


start timestep kper="1" kstp="9" mode="normal"


end timestep


start timestep kper="1" kstp="10" mode="normal"


end timestep


start timestep kper="1" kstp="11" mode="normal"


end timestep


start timestep kper="1" kstp="12" mode="normal"


end timestep


start timestep kper="1" kstp="13" mode="normal"


end timestep


start timestep kper="1" kstp="14" mode="normal"


end timestep


start timestep kper="1" kstp="15" mode="normal"


end timestep


start timestep kper="1" kstp="16" mode="normal"


end timestep


start timestep kper="1" kstp="17" mode="normal"


end timestep


start timestep kper="1" kstp="18" mode="normal"


end timestep


start timestep kper="1" kstp="19" mode="normal"


end timestep


start timestep kper="1" kstp="20" mode="normal"


end timestep


start timestep kper="1" kstp="21" mode="normal"


end timestep


start timestep kper="1" kstp="22" mode="normal"


end timestep


start timestep kper="1" kstp="23" mode="normal"


end timestep


start timestep kper="1" kstp="24" mode="normal"


end timestep


start timestep kper="1" kstp="25" mode="normal"


end timestep


start timestep kper="1" kstp="26" mode="normal"


end timestep


start timestep kper="1" kstp="27" mode="normal"


end timestep


start timestep kper="1" kstp="28" mode="normal"


end timestep


start timestep kper="1" kstp="29" mode="normal"


end timestep


start timestep kper="1" kstp="30" mode="normal"


end timestep


start timestep kper="1" kstp="31" mode="normal"


end timestep


start timestep kper="1" kstp="32" mode="normal"


end timestep


start timestep kper="1" kstp="33" mode="normal"


end timestep


start timestep kper="1" kstp="34" mode="normal"


end timestep


start timestep kper="1" kstp="35" mode="normal"


end timestep


start timestep kper="1" kstp="36" mode="normal"


end timestep


start timestep kper="1" kstp="37" mode="normal"


end timestep


start timestep kper="1" kstp="38" mode="normal"


end timestep


start timestep kper="1" kstp="39" mode="normal"


end timestep


start timestep kper="1" kstp="40" mode="normal"


end timestep


start timestep kper="1" kstp="41" mode="normal"


end timestep


start timestep kper="1" kstp="42" mode="normal"


end timestep


start timestep kper="1" kstp="43" mode="normal"


end timestep


start timestep kper="1" kstp="44" mode="normal"


end timestep


start timestep kper="1" kstp="45" mode="normal"


end timestep


start timestep kper="1" kstp="46" mode="normal"


end timestep


start timestep kper="1" kstp="47" mode="normal"


end timestep


start timestep kper="1" kstp="48" mode="normal"


end timestep


start timestep kper="1" kstp="49" mode="normal"


end timestep


start timestep kper="1" kstp="50" mode="normal"


end timestep


start timestep kper="1" kstp="51" mode="normal"


end timestep


start timestep kper="1" kstp="52" mode="normal"


end timestep


start timestep kper="1" kstp="53" mode="normal"


end timestep


start timestep kper="1" kstp="54" mode="normal"


end timestep


start timestep kper="1" kstp="55" mode="normal"


end timestep


start timestep kper="1" kstp="56" mode="normal"


end timestep


start timestep kper="1" kstp="57" mode="normal"


end timestep


start timestep kper="1" kstp="58" mode="normal"


end timestep


start timestep kper="1" kstp="59" mode="normal"


end timestep


start timestep kper="1" kstp="60" mode="normal"


end timestep


start timestep kper="1" kstp="61" mode="normal"


end timestep


start timestep kper="1" kstp="62" mode="normal"


end timestep


start timestep kper="1" kstp="63" mode="normal"


end timestep


start timestep kper="1" kstp="64" mode="normal"


end timestep


start timestep kper="1" kstp="65" mode="normal"


end timestep


start timestep kper="1" kstp="66" mode="normal"


end timestep


start timestep kper="1" kstp="67" mode="normal"


end timestep


start timestep kper="1" kstp="68" mode="normal"


end timestep


start timestep kper="1" kstp="69" mode="normal"


end timestep


start timestep kper="1" kstp="70" mode="normal"


end timestep


start timestep kper="1" kstp="71" mode="normal"


end timestep


start timestep kper="1" kstp="72" mode="normal"


end timestep


start timestep kper="1" kstp="73" mode="normal"


end timestep


start timestep kper="1" kstp="74" mode="normal"


end timestep


start timestep kper="1" kstp="75" mode="normal"


end timestep


start timestep kper="1" kstp="76" mode="normal"


end timestep


start timestep kper="1" kstp="77" mode="normal"


end timestep


start timestep kper="1" kstp="78" mode="normal"


end timestep


start timestep kper="1" kstp="79" mode="normal"


end timestep


start timestep kper="1" kstp="80" mode="normal"


end timestep


start timestep kper="1" kstp="81" mode="normal"


end timestep


start timestep kper="1" kstp="82" mode="normal"


end timestep


start timestep kper="1" kstp="83" mode="normal"


end timestep


start timestep kper="1" kstp="84" mode="normal"


end timestep


start timestep kper="1" kstp="85" mode="normal"


end timestep


start timestep kper="1" kstp="86" mode="normal"


end timestep


start timestep kper="1" kstp="87" mode="normal"


end timestep


start timestep kper="1" kstp="88" mode="normal"


end timestep


start timestep kper="1" kstp="89" mode="normal"


end timestep


start timestep kper="1" kstp="90" mode="normal"


end timestep


start timestep kper="1" kstp="91" mode="normal"


end timestep


start timestep kper="1" kstp="92" mode="normal"


end timestep


start timestep kper="1" kstp="93" mode="normal"


end timestep


start timestep kper="1" kstp="94" mode="normal"


end timestep


start timestep kper="1" kstp="95" mode="normal"


end timestep


start timestep kper="1" kstp="96" mode="normal"


end timestep


start timestep kper="1" kstp="97" mode="normal"


end timestep


start timestep kper="1" kstp="98" mode="normal"


end timestep


start timestep kper="1" kstp="99" mode="normal"


end timestep


start timestep kper="1" kstp="100" mode="normal"

 UBDSV1 SAVING  STORAGE-AQUEOUS ON UNIT   1027 AT TIME STEP    100, STRESS PERIOD      1
 UBDSV1 SAVING     FLOW-JA-FACE ON UNIT   1027 AT TIME STEP    100, STRESS PERIOD      1
 UBDSV06 SAVING  SOURCE-SINK MIX IN MODEL GWT_P04-MF6      PACKAGE GWT_P04-MF6     CONNECTED TO MODEL GWT_P04-MF6      PACKAGE SSM              ON UNIT   1027 AT TIME STEP    100, STRESS PERIOD      1
1
  CONCENTRATION IN LAYER   1 AT END OF TIME STEP 100 IN STRESS PERIOD    1
  ---------------------------------------------------------------------------

 ........................................................................................................................................................................................................................................................................................................................................................................................................................................................................................................................................................................................................................................................................................................................................................................................................................................................................................................................................................................................................................................
   1     3.358340E-24    9.589775E-24    3.843080E-23    1.560371E-22    6.185856E-22    2.394877E-21    9.069850E-21    3.362284E-20    1.220155E-19    4.333735E-19
         1.506112E-18    5.119989E-18    1.702035E-17    5.531379E-17    1.756916E-16    5.452818E-16    1.653315E-15    4.896456E-15    1.416257E-14    4.000312E-14
         1.103348E-13    2.971592E-13    7.815062E-13    2.007094E-12    5.034276E-12    1.233383E-11    2.952054E-11    6.904036E-11    1.578103E-10    3.526427E-10
         7.705941E-10    1.647183E-09    3.445297E-09    7.053907E-09    1.414189E-08    2.777290E-08    5.344853E-08    1.008367E-07    1.865692E-07    3.386645E-07
         6.033630E-07    1.055448E-06    1.813480E-06    3.061780E-06    5.081417E-06    8.292924E-06    1.331379E-05    2.103403E-05    3.271317E-05    5.010151E-05
         7.558783E-05    1.123742E-04    1.646769E-04    2.379482E-04    3.391135E-04    4.768105E-04    6.616154E-04    9.062371E-04    1.225654E-03    1.637170E-03
         2.160355E-03    2.816858E-03    3.630048E-03    4.624485E-03    5.825198E-03    7.256780E-03    8.942316E-03    1.090217E-02    1.315266E-02    1.570475E-02
         1.856271E-02    2.172293E-02    2.517292E-02    2.889060E-02    3.284390E-02    3.699076E-02    4.127965E-02    4.565040E-02    5.003560E-02    5.436233E-02
         5.855426E-02    6.253392E-02    6.622528E-02    6.955615E-02    7.246068E-02    7.488150E-02    7.677167E-02    7.809616E-02    7.883290E-02    7.897329E-02
         7.852224E-02    7.749769E-02    7.592965E-02    7.385887E-02    7.133519E-02    6.841575E-02    6.516364E-02    6.165118E-02    5.799809E-02    5.466910E-02
   2     2.547107E-24    1.201062E-23    5.171051E-23    2.124211E-22    8.459591E-22    3.287148E-21    1.249209E-20    4.646260E-20    1.691397E-19    6.025228E-19
         2.099717E-18    7.156006E-18    2.384343E-17    7.764747E-17    2.470754E-16    7.680168E-16    2.331630E-15    6.912265E-15    2.000748E-14    5.653696E-14
         1.559602E-13    4.199791E-13    1.104036E-12    2.833390E-12    7.099720E-12    1.737193E-11    4.151480E-11    9.691638E-11    2.210731E-10    4.928748E-10
         1.074308E-09    2.290086E-09    4.775880E-09    9.747412E-09    1.947697E-08    3.811678E-08    7.308769E-08    1.373658E-07    2.531597E-07    4.576858E-07
         8.120318E-07    1.414445E-06    2.419805E-06    4.067496E-06    6.720406E-06    1.091822E-05    1.744853E-05    2.743951E-05    4.247760E-05    6.475327E-05
         9.723649E-05    1.438820E-04    2.098617E-04    3.018177E-04    4.281264E-04    5.991597E-04    8.275213E-04    1.128238E-03    1.518877E-03    2.019554E-03
         2.652815E-03    3.443347E-03    4.417505E-03    5.602640E-03    7.026212E-03    8.714709E-03    1.069239E-02    1.297992E-02    1.559285E-02    1.854020E-02
         2.182303E-02    2.543323E-02    2.935253E-02    3.355186E-02    3.799109E-02    4.261933E-02    4.737559E-02    5.219000E-02    5.698553E-02    6.168007E-02
         6.618883E-02    7.042704E-02    7.431266E-02    7.776912E-02    8.072794E-02    8.313094E-02    8.493221E-02    8.609950E-02    8.661516E-02    8.647642E-02
         8.569522E-02    8.429738E-02    8.232141E-02    7.981684E-02    7.684229E-02    7.346339E-02    6.975128E-02    6.578612E-02    6.169884E-02    5.799809E-02
   3     3.385316E-24    1.653320E-23    7.188249E-23    2.966850E-22    1.186207E-21    4.626768E-21    1.764783E-20    6.587082E-20    2.405975E-19    8.597813E-19
         3.005036E-18    1.026912E-17    3.430030E-17    1.119467E-16    3.569042E-16    1.111245E-15    3.378242E-15    1.002572E-14    2.904162E-14    8.210347E-14
         2.265217E-13    6.098974E-13    1.602550E-12    4.109619E-12    1.028662E-11    2.513548E-11    5.996878E-11    1.397274E-10    3.180279E-10    7.072928E-10
         1.537509E-09    3.267872E-09    6.793525E-09    1.381877E-08    2.751410E-08    5.364453E-08    1.024604E-07    1.917899E-07    3.519780E-07    6.335871E-07
         1.119126E-06    1.940501E-06    3.304374E-06    5.528168E-06    9.089993E-06    1.469625E-05    2.337101E-05    3.657123E-05    5.633161E-05    8.544186E-05
         1.276575E-04    1.879427E-04    2.727412E-04    3.902655E-04    5.507916E-04    7.669401E-04    1.053920E-03    1.429706E-03    1.915117E-03    2.533764E-03
         3.311830E-03    4.277654E-03    5.461106E-03    6.892718E-03    8.602600E-03    1.061914E-02    1.296753E-02    1.566818E-02    1.873506E-02    2.217410E-02
         2.598175E-02    3.014366E-02    3.463386E-02    3.941417E-02    4.443427E-02    4.963214E-02    5.493520E-02    6.026187E-02    6.552372E-02    7.062793E-02
         7.548018E-02    7.998765E-02    8.406204E-02    8.762259E-02    9.059878E-02    9.293263E-02    9.458063E-02    9.551499E-02    9.572436E-02    9.521386E-02
         9.400452E-02    9.213221E-02    8.964596E-02    8.660598E-02    8.308136E-02    7.914774E-02    7.488553E-02    7.038382E-02    6.578612E-02    6.165118E-02
   4     4.677325E-24    2.293140E-23    1.000701E-22    4.145987E-22    1.664111E-21    6.516031E-21    2.494813E-20    9.345793E-20    3.425399E-19    1.228049E-18
         4.305150E-18    1.475295E-17    4.940163E-17    1.615985E-16    5.162265E-16    1.610040E-15    4.901481E-15    1.456229E-14    4.221613E-14    1.194059E-13
         3.294909E-13    8.869952E-13    2.329535E-12    5.969199E-12    1.492482E-11    3.641785E-11    8.673897E-11    2.017009E-10    4.580459E-10    1.016120E-09
         2.202703E-09    4.667580E-09    9.671903E-09    1.960576E-08    3.889384E-08    7.554081E-08    1.437039E-07    2.678714E-07    4.894872E-07    8.772034E-07
         1.542374E-06    2.661919E-06    4.511274E-06    7.510759E-06    1.228929E-05    1.976985E-05    3.128126E-05    4.870089E-05    7.463192E-05    1.126175E-04
         1.673922E-04    2.451673E-04    3.539425E-04    5.038330E-04    7.073923E-04    9.799079E-04    1.339642E-03    1.807978E-03    2.409445E-03    3.171573E-03
         4.124547E-03    5.300636E-03    6.733367E-03    8.456447E-03    1.050244E-02    1.290121E-02    1.567826E-02    1.885289E-02    2.243637E-02    2.643028E-02
         3.082495E-02    3.559827E-02    4.071487E-02    4.612586E-02    5.176909E-02    5.757003E-02    6.344328E-02    6.929457E-02    7.502343E-02    8.052608E-02
         8.569873E-02    9.044094E-02    9.465900E-02    9.826904E-02    0.101200        0.103395        0.104816        0.105441        0.105266        0.104306    
         0.102593        0.100175        9.711114E-02    9.347469E-02    8.934548E-02    8.480959E-02    7.995695E-02    7.488553E-02    6.975128E-02    6.516364E-02
   5     6.464987E-24    3.177375E-23    1.391262E-22    5.786195E-22    2.331738E-21    9.166677E-21    3.523346E-20    1.324814E-19    4.872928E-19    1.752843E-18
         6.164027E-18    2.118351E-17    7.111979E-17    2.331840E-16    7.464322E-16    2.332100E-15    7.109946E-15    2.114761E-14    6.135697E-14    1.736299E-13
         4.791960E-13    1.289793E-12    3.385749E-12    8.668575E-12    2.164953E-11    5.275034E-11    1.254194E-10    2.910513E-10    6.594147E-10    1.459031E-09
         3.153787E-09    6.662209E-09    1.375903E-08    2.779165E-08    5.492598E-08    1.062583E-07    2.013067E-07    3.736412E-07    6.797427E-07    1.212608E-06
         2.122141E-06    3.644993E-06    6.147191E-06    1.018357E-05    1.657867E-05    2.653415E-05    4.176781E-05    6.468903E-05    9.861409E-05    1.480229E-04
         2.188559E-04    3.188451E-04    4.578694E-04    6.483167E-04    9.054304E-04    1.247611E-03    1.696635E-03    2.277759E-03    3.019654E-03    3.954146E-03
         5.115709E-03    6.540700E-03    8.266305E-03    1.032921E-02    1.276402E-02    1.560146E-02    1.886642E-02    2.257597E-02    2.673737E-02    3.134632E-02
         3.638539E-02    4.182297E-02    4.761261E-02    5.369304E-02    5.998882E-02    6.641163E-02    7.286224E-02    7.923312E-02    8.541148E-02    9.128271E-02
         9.673410E-02    0.101659        0.105958        0.109548        0.112357        0.114333        0.115443        0.115675        0.115033        0.113545    
         0.111255        0.108222        0.104521        0.100235        9.545606E-02    9.028119E-02    8.480959E-02    7.914774E-02    7.346339E-02    6.841575E-02
   6     8.921232E-24    4.395423E-23    1.931283E-22    8.063800E-22    3.262950E-21    1.288026E-20    4.970556E-20    1.876173E-19    6.926158E-19    2.499977E-18
         8.819539E-18    3.039895E-17    1.023329E-16    3.363303E-16    1.078881E-15    3.376869E-15    1.031053E-14    3.070321E-14    8.915614E-14    2.524246E-13
         6.967771E-13    1.875112E-12    4.919741E-12    1.258550E-11    3.139521E-11    7.638227E-11    1.812792E-10    4.197951E-10    9.488201E-10    2.093754E-09
         4.512465E-09    9.501901E-09    1.955634E-08    3.935725E-08    7.748338E-08    1.492898E-07    2.816337E-07    5.204380E-07    9.425010E-07    1.673484E-06
         2.914649E-06    4.981636E-06    8.359356E-06    1.377780E-05    2.231417E-05    3.552707E-05    5.562831E-05    8.569696E-05    1.299388E-04    1.939911E-04
         2.852699E-04    4.133490E-04    5.903585E-04    8.313789E-04    1.154802E-03    1.582622E-03    2.140623E-03    2.858397E-03    3.769177E-03    4.909413E-03
         6.318075E-03    8.035653E-03    1.010284E-02    1.255893E-02    1.543993E-02    1.877654E-02    2.259190E-02    2.689947E-02    3.170093E-02    3.698433E-02
         4.272270E-02    4.887304E-02    5.537606E-02    6.215649E-02    6.912417E-02    7.617589E-02    8.319790E-02    9.006902E-02    9.666425E-02    0.102859    
         0.108532        0.113571        0.117876        0.121362        0.123961        0.125628        0.126337        0.126086        0.124893        0.122797    
         0.119856        0.116144        0.111748        0.106765        0.101299        9.545606E-02    8.934548E-02    8.308136E-02    7.684229E-02    7.133519E-02
   7     1.228923E-23    6.070335E-23    2.676777E-22    1.122199E-21    4.560139E-21    1.807698E-20    7.004761E-20    2.654465E-19    9.836178E-19    3.562899E-18
         1.261079E-17    4.359857E-17    1.471728E-16    4.849000E-16    1.558846E-15    4.888232E-15    1.494811E-14    4.456691E-14    1.295258E-13    3.669132E-13
         1.012981E-12    2.725580E-12    7.147387E-12    1.826835E-11    4.551649E-11    1.105683E-10    2.619257E-10    6.052349E-10    1.364573E-09    3.002893E-09
         6.452242E-09    1.354184E-08    2.777277E-08    5.568292E-08    1.091890E-07    2.095021E-07    3.935061E-07    7.238893E-07    1.304834E-06    2.305713E-06
         3.996007E-06    6.795478E-06    1.134452E-05    1.860033E-05    2.996514E-05    4.745282E-05    7.389957E-05    1.132232E-04    1.707330E-04    2.534881E-04
         3.706980E-04    5.341520E-04    7.586572E-04    1.062457E-03    1.467594E-03    2.000175E-03    2.690487E-03    3.572923E-03    4.685653E-03    6.070011E-03
         7.769560E-03    9.828815E-03    1.229164E-02    1.519933E-02    1.858843E-02    2.248844E-02    2.691936E-02    3.188939E-02    3.739276E-02    4.340799E-02
         4.989652E-02    5.680211E-02    6.405078E-02    7.155171E-02    7.919879E-02    8.687304E-02    9.444575E-02    0.101782        0.108746        0.115202    
         0.121024        0.126095        0.130315        0.133602        0.135894        0.137153        0.137365        0.136538        0.134707        0.131924    
         0.128262        0.123810        0.118669        0.112949        0.106765        0.100235        9.347469E-02    8.660598E-02    7.981684E-02    7.385887E-02
   8     1.689912E-23    8.369589E-23    3.704335E-22    1.559505E-21    6.364837E-21    2.534089E-20    9.861137E-20    3.752106E-19    1.395728E-18    5.074061E-18
         1.802042E-17    6.249577E-17    2.115632E-16    6.988290E-16    2.251614E-15    7.074164E-15    2.166695E-14    6.467907E-14    1.881462E-13    5.332568E-13
         1.472490E-12    3.961247E-12    1.038213E-11    2.651250E-11    6.597518E-11    1.600126E-10    3.783288E-10    8.722545E-10    1.961597E-09    4.304461E-09
         9.220057E-09    1.928544E-08    3.940867E-08    7.870711E-08    1.537079E-07    2.936589E-07    5.491154E-07    1.005467E-06    1.803713E-06    3.171563E-06
         5.468840E-06    9.252116E-06    1.536441E-05    2.505655E-05    4.014717E-05    6.322815E-05    9.792115E-05    1.491890E-04    2.237023E-04    3.302559E-04
         4.802255E-04    6.880456E-04    9.716810E-04    1.353058E-03    1.858412E-03    2.518497E-03    3.368609E-03    4.448365E-03    5.801184E-03    7.473434E-03
         9.513220E-03    1.196879E-02    1.488661E-02    1.830910E-02    2.227221E-02    2.680276E-02    3.191592E-02    3.761269E-02    4.387784E-02    5.067818E-02
         5.796153E-02    6.565640E-02    7.367244E-02    8.190184E-02    9.022154E-02    9.849626E-02    0.106582        0.114332        0.121597        0.128237    
         0.134118        0.139125        0.143157        0.146139        0.148016        0.148763        0.148376        0.146881        0.144325        0.140779    
         0.136331        0.131085        0.125157        0.118669        0.111748        0.104521        9.711114E-02    8.964596E-02    8.232141E-02    7.592965E-02
   9     2.319750E-23    1.152058E-22    5.118471E-22    2.164174E-21    8.872393E-21    3.548265E-20    1.386791E-19    5.298748E-19    1.978895E-18    7.221050E-18
         2.573491E-17    8.953727E-17    3.039933E-16    1.006779E-15    3.251313E-15    1.023524E-14    3.140002E-14    9.385392E-14    2.732651E-13    7.749365E-13
         2.140241E-12    5.756543E-12    1.507910E-11    3.847154E-11    9.561214E-11    2.315140E-10    5.463043E-10    1.256629E-09    2.818606E-09    6.166982E-09
         1.316715E-08    2.744569E-08    5.587430E-08    1.111492E-07    2.161546E-07    4.111483E-07    7.652863E-07    1.394628E-06    2.489543E-06    4.355376E-06
         7.471234E-06    1.257284E-05    2.076633E-05    3.368050E-05    5.366517E-05    8.404269E-05    1.294179E-04    1.960486E-04    2.922747E-04    4.289965E-04
         6.201879E-04    8.834167E-04    1.240341E-03    1.717137E-03    2.344799E-03    3.159274E-03    4.201341E-03    5.516208E-03    7.152752E-03    9.162380E-03
         1.159749E-02    1.450954E-02    1.794673E-02    2.195149E-02    2.655765E-02    3.178761E-02    3.764969E-02    4.413554E-02    5.121818E-02    5.885049E-02
         6.696453E-02    7.547164E-02    8.426353E-02    9.321423E-02    0.102183        0.111018        0.119562        0.127653        0.135136        0.141863    
         0.147700        0.152530        0.156260        0.158820        0.160170        0.160294        0.159207        0.156950        0.153588        0.149208    
         0.143917        0.137832        0.131085        0.123810        0.116144        0.108222        0.100175        9.213221E-02    8.429738E-02    7.749769E-02
  10     3.178706E-23    1.583140E-22    7.061552E-22    2.999060E-21    1.235205E-20    4.962610E-20    1.948263E-19    7.476098E-19    2.803477E-18    1.026937E-17
         3.673015E-17    1.282154E-16    4.366252E-16    1.449948E-15    4.693628E-15    1.480581E-14    4.549832E-14    1.361732E-13    3.968587E-13    1.126073E-12
         3.110614E-12    8.364928E-12    2.189915E-11    5.581860E-11    1.385412E-10    3.348975E-10    7.886514E-10    1.809780E-09    4.048367E-09    8.830997E-09
         1.879284E-08    3.903172E-08    7.915623E-08    1.568206E-07    3.036595E-07    5.749839E-07    1.065204E-06    1.931713E-06    3.430917E-06    5.971175E-06
         1.018859E-05    1.705269E-05    2.800999E-05    4.517381E-05    7.156859E-05    1.114355E-04    1.706034E-04    2.569258E-04    3.807771E-04    5.555944E-04
         7.984437E-04    1.130575E-03    1.577928E-03    2.171525E-03    2.947709E-03    3.948141E-03    5.219508E-03    6.812876E-03    8.782645E-03    1.118507E-02
         1.407635E-02    1.751034E-02    2.153584E-02    2.619375E-02    3.151396E-02    3.751242E-02    4.418825E-02    5.152138E-02    5.947064E-02    6.797269E-02
         7.694170E-02    8.627010E-02    9.583032E-02    0.105477        0.115053        0.124389        0.133314        0.141657        0.149255        0.155956    
         0.161627        0.166156        0.169458        0.171474        0.172177        0.171569        0.169682        0.166574        0.162330        0.157056    
         0.150873        0.143917        0.136331        0.128262        0.119856        0.111255        0.102593        9.400452E-02    8.569522E-02    7.852224E-02
  11     4.347958E-23    2.171868E-22    9.727145E-22    4.150140E-21    1.717433E-20    6.932711E-20    2.734244E-19    1.053858E-18    3.968499E-18    1.459451E-17
         5.239262E-17    1.835126E-16    6.268760E-16    2.087535E-15    6.774127E-15    2.141352E-14    6.591819E-14    1.975573E-13    5.763189E-13    1.636251E-12
         4.520799E-12    1.215474E-11    3.180200E-11    8.098055E-11    2.007192E-10    4.843600E-10    1.138231E-09    2.605601E-09    5.812372E-09    1.263968E-08
         2.680653E-08    5.547072E-08    1.120504E-07    2.210577E-07    4.261509E-07    8.031821E-07    1.480772E-06    2.671884E-06    4.721008E-06    8.172797E-06
         1.386930E-05    2.308409E-05    3.770227E-05    6.045571E-05    9.522166E-05    1.473910E-04    2.243087E-04    3.357824E-04    4.946497E-04    7.173824E-04
         1.024698E-03    1.442135E-03    2.000544E-03    2.736419E-03    3.692025E-03    4.915217E-03    6.458923E-03    8.380195E-03    1.073882E-02    1.359547E-02
         1.700938E-02    2.103562E-02    2.572209E-02    3.110629E-02    3.721205E-02    4.404638E-02    5.159672E-02    5.982865E-02    6.868432E-02    7.808186E-02
         8.791561E-02    9.805758E-02    0.108360        0.118658        0.128777        0.138533        0.147742        0.156226        0.163817        0.170363    
         0.175734        0.179828        0.182568        0.183912        0.183849        0.182400        0.179616        0.175576        0.170384        0.164164    
         0.157056        0.149208        0.140779        0.131924        0.122797        0.113545        0.104306        9.521386E-02    8.647642E-02    7.897329E-02
  12     5.936563E-23    2.974459E-22    1.337793E-21    5.734809E-21    2.384839E-20    9.673682E-20    3.833348E-19    1.484203E-18    5.613209E-18    2.072716E-17
         7.469097E-17    2.625339E-16    8.996805E-16    3.004591E-15    9.774633E-15    3.096525E-14    9.549247E-14    2.865940E-13    8.369042E-13    2.377538E-12
         6.570238E-12    1.766132E-11    4.618144E-11    1.174776E-10    2.907724E-10    7.004147E-10    1.642396E-09    3.750250E-09    8.341822E-09    1.808242E-08
         3.821550E-08    7.877974E-08    1.584884E-07    3.113244E-07    5.974371E-07    1.120650E-06    2.055822E-06    3.690438E-06    6.486148E-06    1.116736E-05
         1.884539E-05    3.118769E-05    5.064227E-05    8.072710E-05    1.263923E-04    1.944601E-04    2.941417E-04    4.376236E-04    6.407049E-04    9.234594E-04
         1.310880E-03    1.833452E-03    2.527597E-03    3.435910E-03    4.607112E-03    6.095655E-03    7.960899E-03    1.026582E-02    1.307522E-02    1.645343E-02
         2.046159E-02    2.515450E-02    3.057723E-02    3.676164E-02    4.372296E-02    5.145660E-02    5.993552E-02    6.910824E-02    7.889777E-02    8.920149E-02
         9.989221E-02    0.110820        0.121817        0.132700        0.143276        0.153348        0.162724        0.171218        0.178663        0.184909    
         0.189835        0.193348        0.195388        0.195931        0.194985        0.192591        0.188823        0.183780        0.177586        0.170384    
         0.162330        0.153588        0.144325        0.134707        0.124893        0.115033        0.105266        9.572436E-02    8.661516E-02    7.883290E-02
  13     8.090737E-23    4.066605E-22    1.836966E-21    7.913085E-21    3.307269E-20    1.348251E-19    5.368663E-19    2.088365E-18    7.933234E-18    2.941673E-17
         1.064187E-16    3.754062E-16    1.290722E-15    4.323271E-15    1.410121E-14    4.477124E-14    1.383233E-13    4.157408E-13    1.215301E-12    3.454687E-12
         9.548907E-12    2.566283E-11    6.706192E-11    1.704162E-10    4.211916E-10    1.012699E-09    2.369379E-09    5.396199E-09    1.196758E-08    2.585674E-08
         5.444906E-08    1.118072E-07    2.239940E-07    4.380492E-07    8.366987E-07    1.561776E-06    2.850482E-06    5.089973E-06    8.897282E-06    1.523314E-05
         2.555964E-05    4.205254E-05    6.787924E-05    1.075521E-04    1.673642E-04    2.559096E-04    3.846834E-04    5.687476E-04    8.274364E-04    1.185064E-03
         1.671581E-03    2.323121E-03    3.182352E-03    4.298564E-03    5.727405E-03    7.530189E-03    9.772719E-03    1.252358E-02    1.585189E-02    1.982457E-02
         2.450312E-02    2.994013E-02    3.617553E-02    4.323292E-02    5.111606E-02    5.980582E-02    6.925778E-02    7.940068E-02    9.013594E-02    0.101338    
         0.112858        0.124523        0.136143        0.147519        0.158442        0.168705        0.178107        0.186463        0.193606        0.199395    
         0.203720        0.206504        0.207706        0.207321        0.205379        0.201946        0.197117        0.191013        0.183780        0.175576    
         0.166574        0.156950        0.146881        0.136538        0.126086        0.115675        0.105441        9.551499E-02    8.609950E-02    7.809616E-02
  14     1.100596E-22    5.549981E-22    2.518314E-21    1.090267E-20    4.580390E-20    1.876862E-19    7.510948E-19    2.935730E-18    1.120315E-17    4.172068E-17
         1.515373E-16    5.365560E-16    1.851047E-15    6.218972E-15    2.033885E-14    6.472435E-14    2.003506E-13    6.030695E-13    1.764802E-12    5.019985E-12
         1.387847E-11    3.729052E-11    9.738411E-11    2.472041E-10    6.100641E-10    1.464028E-09    3.417473E-09    7.762380E-09    1.716295E-08    3.695629E-08
         7.753413E-08    1.585724E-07    3.163196E-07    6.157862E-07    1.170544E-06    2.173961E-06    3.947092E-06    7.010029E-06    1.218525E-05    2.074313E-05
         3.460104E-05    5.658809E-05    9.078688E-05    1.429616E-04    2.210773E-04    3.359085E-04    5.017275E-04    7.370474E-04    1.065388E-03    1.516011E-03
         2.124561E-03    2.933540E-03    3.992524E-03    5.358037E-03    7.092999E-03    9.265673E-03    1.194806E-02    1.521373E-02    1.913507E-02    2.378005E-02
         2.920860E-02    3.546869E-02    4.259239E-02    5.059204E-02    5.945681E-02    6.914988E-02    7.960650E-02    9.073298E-02    0.102407        0.114479    
         0.126776        0.139103        0.151252        0.163004        0.174140        0.184445        0.193714        0.201766        0.208439        0.213605    
         0.217169        0.219074        0.219300        0.217866        0.214827        0.210272        0.204321        0.197117        0.188823        0.179616    
         0.169682        0.159207        0.148376        0.137365        0.126337        0.115443        0.104816        9.458063E-02    8.493221E-02    7.677167E-02
  15     1.494302E-22    7.560849E-22    3.446679E-21    1.499916E-20    6.334994E-20    2.609554E-19    1.049676E-18    4.123023E-18    1.580794E-17    5.912988E-17
         2.156603E-16    7.665238E-16    2.653648E-15    8.943473E-15    2.933012E-14    9.355887E-14    2.901757E-13    8.747982E-13    2.562824E-12    7.294845E-12
         2.017216E-11    5.418913E-11    1.414201E-10    3.585886E-10    8.835807E-10    2.116251E-09    4.928255E-09    1.116306E-08    2.460473E-08    5.279588E-08
         1.103430E-07    2.247421E-07    4.463356E-07    8.648232E-07    1.635835E-06    3.022452E-06    5.458218E-06    9.640025E-06    1.666112E-05    2.819615E-05
         4.675112E-05    7.599130E-05    1.211582E-04    1.895838E-04    2.913030E-04    4.397572E-04    6.525715E-04    9.523705E-04    1.367587E-03    1.933197E-03
         2.691313E-03    3.691527E-03    4.990931E-03    6.653714E-03    8.750239E-03    1.135556E-02    1.454732E-02    1.840305E-02    2.299693E-02    2.839600E-02
         3.465618E-02    4.181800E-02    4.990251E-02    5.890746E-02    6.880410E-02    7.953474E-02    9.101135E-02    0.103115        0.115699        0.128588    
         0.141585        0.154473        0.167027        0.179015        0.190207        0.200383        0.209344        0.216910        0.222935        0.227306    
         0.229948        0.230826        0.229947        0.227354        0.223130        0.217389        0.210272        0.201946        0.192591        0.182400    
         0.171569        0.160294        0.148763        0.137153        0.125628        0.114333        0.103395        9.293263E-02    8.313094E-02    7.488150E-02
  16     2.024870E-22    1.028135E-21    4.709305E-21    2.060311E-20    8.749574E-20    3.623769E-19    1.465338E-18    5.784904E-18    2.228684E-17    8.374440E-17
         3.067371E-16    1.094538E-15    3.802854E-15    1.285808E-14    4.228838E-14    1.352243E-13    4.202533E-13    1.268965E-12    3.721849E-12    1.060123E-11
         2.932198E-11    7.875038E-11    2.053767E-10    5.201622E-10    1.279666E-09    3.058704E-09    7.105606E-09    1.604923E-08    3.526031E-08    7.538874E-08
         1.569431E-07    3.182983E-07    6.292675E-07    1.213406E-06    2.283566E-06    4.196905E-06    7.537466E-06    1.323656E-05    2.274310E-05    3.825761E-05
         6.304405E-05    1.018330E-04    1.613262E-04    2.508085E-04    3.828616E-04    5.741672E-04    8.463687E-04    1.226947E-03    1.750047E-03    2.457181E-03
         3.397707E-03    4.628995E-03    6.216172E-03    8.231350E-03    1.075227E-02    1.386029E-02    1.763776E-02    2.216472E-02    2.751514E-02    3.375268E-02
         4.092629E-02    4.906578E-02    5.817768E-02    6.824160E-02    7.920738E-02    9.099327E-02    0.103485        0.116538        0.129978        0.143603    
         0.157195        0.170517        0.183327        0.195383        0.206451        0.216311        0.224770        0.231662        0.236854        0.240257    
         0.241819        0.241532        0.239429        0.235584        0.230104        0.223130        0.214827        0.205379        0.194985        0.183849    
         0.172177        0.160170        0.148016        0.135894        0.123961        0.112357        0.101200        9.059878E-02    8.072794E-02    7.246068E-02
  17     2.738310E-22    1.395432E-21    6.423303E-21    2.825612E-20    1.206726E-19    5.025747E-19    2.043284E-18    8.108611E-18    3.139430E-17    1.185196E-16
         4.360160E-16    1.562166E-15    5.447719E-15    1.848112E-14    6.096062E-14    1.954248E-13    6.086181E-13    1.840763E-12    5.405318E-12    1.540740E-11
         4.262554E-11    1.144526E-10    2.982730E-10    7.545485E-10    1.853237E-09    4.420413E-09    1.024307E-08    2.306786E-08    5.051172E-08    1.075980E-07
         2.230898E-07    4.504745E-07    8.864174E-07    1.700807E-06    3.184180E-06    5.820318E-06    1.039404E-05    1.814650E-05    3.099216E-05    5.181289E-05
         8.484444E-05    1.361681E-04    2.143163E-04    3.309916E-04    5.018901E-04    7.476016E-04    1.094547E-03    1.575893E-03    2.232358E-03    3.112833E-03
         4.274688E-03    5.783676E-03    7.713319E-03    1.014368E-02    1.315950E-02    1.684757E-02    2.129352E-02    2.657795E-02    3.277210E-02    3.993321E-02
         4.809986E-02    5.728745E-02    6.748418E-02    7.864778E-02    9.070325E-02    0.103542        0.117021        0.130969        0.145181        0.159435    
         0.173487        0.187086        0.199977        0.211912        0.222656        0.231997        0.239752        0.245771        0.249947        0.252213    
         0.252546        0.250968        0.247541        0.242368        0.235584        0.227354        0.217866        0.207321        0.195931        0.183912    
         0.171474        0.158820        0.146139        0.133602        0.121362        0.109548        9.826904E-02    8.762259E-02    7.776912E-02    6.955615E-02
  18     3.695455E-22    1.890265E-21    8.745478E-21    3.868888E-20    1.661854E-19    6.960973E-19    2.845861E-18    1.135413E-17    4.418462E-17    1.676107E-16
         6.194005E-16    2.228485E-15    7.801089E-15    2.655592E-14    8.786161E-14    2.823978E-13    8.813838E-13    2.670276E-12    7.850749E-12    2.239442E-11
         6.197088E-11    1.663552E-10    4.332155E-10    1.094576E-09    2.683809E-09    6.387709E-09    1.476321E-08    3.314677E-08    7.233257E-08    1.534928E-07
         3.169205E-07    6.370642E-07    1.247555E-06    2.381560E-06    4.434826E-06    8.061120E-06    1.431232E-05    2.483771E-05    4.215885E-05    7.003685E-05
         1.139476E-04    1.816767E-04    2.840378E-04    4.357098E-04    6.561697E-04    9.706853E-04    1.411309E-03    2.017794E-03    2.838342E-03    3.930062E-03
         5.359036E-03    7.199865E-03    9.534603E-03    1.245099E-02    1.603997E-02    2.039242E-02    2.559533E-02    3.172729E-02    3.885372E-02    4.702190E-02
         5.625617E-02    6.655346E-02    7.787964E-02    9.016684E-02    0.103312        0.117177        0.131589        0.146346        0.161221        0.175963    
         0.190313        0.204005        0.216777        0.228379        0.238584        0.247190        0.254032        0.258983        0.261963        0.262933    
         0.261902        0.258924        0.254093        0.247541        0.239429        0.229947        0.219300        0.207706        0.195388        0.182568    
         0.169458        0.156260        0.143157        0.130315        0.117876        0.105958        9.465900E-02    8.406204E-02    7.431266E-02    6.622528E-02
  19     4.976517E-22    2.555438E-21    1.188524E-20    5.288483E-20    2.285173E-19    9.628305E-19    3.958914E-18    1.588193E-17    6.212936E-17    2.368533E-16
         8.793570E-16    3.177399E-15    1.116675E-14    3.814807E-14    1.266105E-13    4.080379E-13    1.276362E-12    3.873716E-12    1.140334E-11    3.255312E-11
         9.010552E-11    2.418183E-10    6.292532E-10    1.587880E-09    3.886521E-09    9.229646E-09    2.127414E-08    4.761606E-08    1.035397E-07    2.188525E-07
         4.499308E-07    9.002488E-07    1.754230E-06    3.331278E-06    6.169269E-06    1.114953E-05    1.967801E-05    3.393974E-05    5.724484E-05    9.448400E-05
         1.527082E-04    2.418415E-04    3.755244E-04    5.720740E-04    8.555242E-04    1.256695E-03    1.814213E-03    2.575384E-03    3.596808E-03    4.944611E-03
         6.694162E-03    8.929167E-03    1.174005E-02    1.522154E-02    1.946950E-02    2.457703E-02    3.062987E-02    3.770149E-02    4.584782E-02    5.510210E-02
         6.547013E-02    7.692613E-02    8.940960E-02    0.102823        0.117034        0.131870        0.147131        0.162583        0.177975        0.193037    
         0.207492        0.221067        0.233498        0.244541        0.253979        0.261628        0.267349        0.271041        0.272654        0.272185    
         0.269676        0.265214        0.258924        0.250968        0.241532        0.230826        0.219074        0.206504        0.193348        0.179828    
         0.166156        0.152530        0.139125        0.126095        0.113571        0.101659        9.044094E-02    7.998765E-02    7.042704E-02    6.253392E-02
  20     6.686879E-22    3.447528E-21    1.612147E-20    7.216435E-20    3.137360E-19    1.329901E-18    5.500434E-18    2.219109E-17    8.727978E-17    3.344348E-16
         1.247595E-15    4.527995E-15    1.597806E-14    5.478462E-14    1.824144E-13    5.895187E-13    1.848303E-12    5.619732E-12    1.656488E-11    4.732513E-11
         1.310284E-10    3.515511E-10    9.140749E-10    2.303594E-09    5.628087E-09    1.333468E-08    3.065084E-08    6.838181E-08    1.481512E-07    3.118797E-07
         6.383455E-07    1.271149E-06    2.464364E-06    4.654642E-06    8.571370E-06    1.539958E-05    2.701313E-05    4.629764E-05    7.758325E-05    1.272051E-04
         2.042043E-04    3.211729E-04    4.952316E-04    7.491131E-04    1.112300E-03    1.622141E-03    2.324856E-03    3.276301E-03    4.542371E-03    6.198900E-03
         8.330926E-03    1.103122E-02    1.439801E-02    1.853184E-02    2.353166E-02    2.949020E-02    3.648881E-02    4.459201E-02    5.384199E-02    6.425348E-02
         7.580916E-02    8.845615E-02    0.102104        0.116622        0.131844        0.147568        0.163559        0.179559        0.195292        0.210473    
         0.224814        0.238040        0.249891        0.260134        0.268571        0.275044        0.279439        0.281693        0.281788        0.279758    
         0.275680        0.269676        0.261902        0.252546        0.241819        0.229948        0.217169        0.203720        0.189835        0.175734    
         0.161627        0.147700        0.134118        0.121024        0.108532        9.673410E-02    8.569873E-02    7.548018E-02    6.618883E-02    5.855426E-02
  21     8.964560E-22    4.641074E-21    2.182452E-20    9.829551E-20    4.300348E-19    1.834238E-18    7.632304E-18    3.097144E-17    1.224913E-16    4.718281E-16
         1.768827E-15    6.449160E-15    2.285284E-14    7.865296E-14    2.627636E-13    8.516314E-13    2.676478E-12    8.153082E-12    2.406482E-11    6.880835E-11
         1.905607E-10    5.111377E-10    1.327933E-09    3.342047E-09    8.149889E-09    1.926361E-08    4.415190E-08    9.817437E-08    2.118960E-07    4.442075E-07
         9.050435E-07    1.793373E-06    3.458585E-06    6.496351E-06    1.189338E-05    2.123880E-05    3.702255E-05    6.304281E-05    1.049432E-04    1.708969E-04
         2.724458E-04    4.254898E-04    6.514046E-04    9.782411E-04    1.441937E-03    2.087443E-03    2.969647E-03    4.153949E-03    5.716351E-03    7.742911E-03
         1.032844E-02    1.357434E-02    1.758557E-02    2.246671E-02    2.831730E-02    3.522646E-02    4.326725E-02    5.249083E-02    6.292092E-02    7.454882E-02
         8.732944E-02    0.101178        0.115971        0.131543        0.147693        0.164184        0.180754        0.197120        0.212987        0.228058    
         0.242043        0.254668        0.265686        0.274883        0.282086        0.287167        0.290049        0.290702        0.289151        0.285464    
         0.279758        0.272185        0.262933        0.252213        0.240257        0.227306        0.213605        0.199395        0.184909        0.170363    
         0.155956        0.141863        0.128237        0.115202        0.102859        9.128271E-02    8.052608E-02    7.062793E-02    6.168007E-02    5.436233E-02
  22     1.198960E-21    6.233947E-21    2.948463E-20    1.336394E-19    5.884502E-19    2.526002E-18    1.057620E-17    4.317487E-17    1.717332E-16    6.650917E-16
         2.506040E-15    9.180225E-15    3.267140E-14    1.128851E-13    3.784293E-13    1.230160E-12    3.875660E-12    1.182900E-11    3.496373E-11    1.000562E-10
         2.771783E-10    7.432602E-10    1.929353E-09    4.848856E-09    1.180142E-08    2.782584E-08    6.358722E-08    1.409032E-07    3.029366E-07    6.323213E-07
         1.282254E-06    2.527962E-06    4.848969E-06    9.056077E-06    1.648074E-05    2.924788E-05    5.065566E-05    8.568581E-05    1.416655E-04    2.290942E-04
         3.626373E-04    5.622696E-04    8.545296E-04    1.273819E-03    1.863650E-03    2.677725E-03    3.780692E-03    5.248432E-03    7.167714E-03    9.635073E-03
         1.275480E-02    1.663600E-02    2.138868E-02    2.711900E-02    3.392380E-02    4.188465E-02    5.106172E-02    6.148783E-02    7.316305E-02    8.605023E-02
         0.100072        0.115108        0.130998        0.147539        0.164496        0.181600        0.198563        0.215080        0.230844        0.245552    
         0.258916        0.270676        0.280602        0.288507        0.294251        0.297740        0.298937        0.297855        0.294557        0.289151    
         0.281788        0.272654        0.261963        0.249947        0.236854        0.222935        0.208439        0.193606        0.178663        0.163817    
         0.149255        0.135136        0.121597        0.108746        9.666425E-02    8.541148E-02    7.502343E-02    6.552372E-02    5.698553E-02    5.003560E-02
  23     1.599604E-21    8.354204E-21    3.974879E-20    1.813399E-19    8.038090E-19    3.473172E-18    1.463503E-17    6.011260E-17    2.405144E-16    9.366726E-16
         3.547866E-15    1.306006E-14    4.668719E-14    1.619633E-13    5.448962E-13    1.776748E-12    5.612022E-12    1.716311E-11    5.080382E-11    1.455136E-10
         4.032239E-10    1.080937E-09    2.803435E-09    7.035381E-09    1.708868E-08    4.018955E-08    9.155876E-08    2.021632E-07    4.328956E-07    8.995626E-07
         1.815329E-06    3.560239E-06    6.791073E-06    1.260887E-05    2.280546E-05    4.021377E-05    6.918788E-05    1.162377E-04    1.908371E-04    3.064134E-04
         4.815085E-04    7.410801E-04    1.117881E-03    1.653825E-03    2.401219E-03    3.423707E-03    4.796762E-03    6.607558E-03    8.954042E-03    1.194310E-02
         1.568773E-02    2.030315E-02    2.590203E-02    3.258886E-02    4.045374E-02    4.956593E-02    5.996749E-02    7.166744E-02    8.463678E-02    9.880482E-02
         0.114057        0.130236        0.147139        0.164530        0.182137        0.199663        0.216797        0.233219        0.248615        0.262685    
         0.275152        0.285775        0.294352        0.300728        0.304801        0.306520        0.305890        0.302967        0.297855        0.290702    
         0.281693        0.271041        0.258983        0.245771        0.231662        0.216910        0.201766        0.186463        0.171218        0.156226    
         0.141657        0.127653        0.114332        0.101782        9.006902E-02    7.923312E-02    6.929457E-02    6.026187E-02    5.219000E-02    4.565040E-02
  24     2.128675E-21    1.116875E-20    5.346778E-20    2.455702E-19    1.095977E-18    4.767645E-18    2.022188E-17    8.358743E-17    3.364685E-16    1.317906E-15
         5.018891E-15    1.856804E-14    6.668384E-14    2.322997E-13    7.844184E-13    2.565910E-12    8.126138E-12    2.490386E-11    7.382794E-11    2.116522E-10
         5.866751E-10    1.572244E-09    4.073945E-09    1.020842E-08    2.474424E-08    5.804030E-08    1.318059E-07    2.899582E-07    6.183119E-07    1.278952E-06
         2.568018E-06    5.009312E-06    9.500450E-06    1.753288E-05    3.151125E-05    5.520037E-05    9.432799E-05    1.573676E-04    2.565156E-04    4.088614E-04
         6.377252E-04    9.741102E-04    1.458181E-03    2.140648E-03    3.083901E-03    4.362720E-03    6.064367E-03    8.287892E-03    1.114248E-02    1.474475E-02
         1.921497E-02    2.467219E-02    3.122850E-02    3.898259E-02    4.801296E-02    5.837111E-02    7.007522E-02    8.310467E-02    9.739591E-02    0.112840    
         0.129282        0.146522        0.164320        0.182401        0.200462        0.218183        0.235232        0.251285        0.266028        0.279170    
         0.290456        0.299672        0.306650        0.311275        0.313490        0.313289        0.310722        0.305890        0.298937        0.290049    
         0.279439        0.267349        0.254032        0.239752        0.224770        0.209344        0.193714        0.178107        0.162724        0.147742    
         0.133314        0.119562        0.106582        9.444575E-02    8.319790E-02    7.286224E-02    6.344328E-02    5.493520E-02    4.737559E-02    4.127965E-02
  25     2.825215E-21    1.489430E-20    7.175649E-20    3.318523E-19    1.491491E-18    6.533337E-18    2.789872E-17    1.160730E-16    4.701553E-16    1.852470E-15
         7.094027E-15    2.638166E-14    9.519747E-14    3.330614E-13    1.128967E-12    3.705151E-12    1.176629E-11    3.613774E-11    1.072983E-10    3.078965E-10
         8.537224E-10    2.287189E-09    5.920900E-09    1.481336E-08    3.582861E-08    8.380984E-08    1.897010E-07    4.157309E-07    8.827020E-07    1.817156E-06
         3.629823E-06    7.041215E-06    1.327529E-05    2.434702E-05    4.347383E-05    7.564219E-05    1.283587E-04    2.126067E-04    3.440153E-04    5.442241E-04
         8.423984E-04    1.276813E-03    1.896388E-03    2.762012E-03    3.947477E-03    5.539823E-03    7.638874E-03    1.035581E-02    1.381062E-02    1.812839E-02
         2.343448E-02    2.984856E-02    3.747803E-02    4.641078E-02    5.670800E-02    6.839734E-02    8.146687E-02    9.586045E-02    0.111475        0.128158    
         0.145712        0.163895        0.182427        0.200999        0.219280        0.236932        0.253613        0.268999        0.282786        0.294704    
         0.304526        0.312073        0.317220        0.319899        0.320099        0.317863        0.313289        0.306520        0.297740        0.287167    
         0.275044        0.261628        0.247190        0.231997        0.216311        0.200383        0.184445        0.168705        0.153348        0.138533    
         0.124389        0.111018        9.849626E-02    8.687304E-02    7.617589E-02    6.641163E-02    5.757003E-02    4.963214E-02    4.261933E-02    3.699076E-02
  26     3.739299E-21    1.981097E-20    9.607023E-20    4.474672E-19    2.025695E-18    8.936876E-18    3.842827E-17    1.609566E-16    6.561560E-16    2.601159E-15
         1.001853E-14    3.745748E-14    1.358315E-13    4.773477E-13    1.624459E-12    5.349533E-12    1.703664E-11    5.244205E-11    1.559607E-10    4.479733E-10
         1.242529E-09    3.327742E-09    8.606174E-09    2.149674E-08    5.187702E-08    1.210057E-07    2.729594E-07    5.958327E-07    1.259479E-06    2.580066E-06
         5.126243E-06    9.887036E-06    1.852732E-05    3.376182E-05    5.988178E-05    1.034683E-04    1.743200E-04    2.866107E-04    4.602698E-04    7.225501E-04
         1.109709E-03    1.668685E-03    2.458623E-03    3.552037E-03    5.035411E-03    7.009006E-03    9.585671E-03    1.288849E-02    1.704720E-02    2.219330E-02
         2.845412E-02    3.594583E-02    4.476598E-02    5.498577E-02    6.664268E-02    7.973388E-02    9.421096E-02    0.109976        0.126882        0.144732    
         0.163280        0.182244        0.201307        0.220130        0.238361        0.255649        0.271654        0.286058        0.298579        0.308977    
         0.317061        0.322697        0.325808        0.326376        0.324442        0.320099        0.313490        0.304801        0.294251        0.282086    
         0.268571        0.253979        0.238584        0.222656        0.206451        0.190207        0.174140        0.158442        0.143276        0.128777    
         0.115053        0.102183        9.022154E-02    7.919879E-02    6.912417E-02    5.998882E-02    5.176909E-02    4.443427E-02    3.799109E-02    3.284390E-02
  27     4.934871E-21    2.627934E-20    1.283010E-19    6.019809E-19    2.745506E-18    1.220168E-17    5.284306E-17    2.228657E-16    9.145662E-16    3.648448E-15
         1.413584E-14    5.314458E-14    1.937013E-13    6.838653E-13    2.336807E-12    7.722666E-12    2.466698E-11    7.610672E-11    2.267196E-10    6.518804E-10
         1.808715E-09    4.842454E-09    1.251078E-08    3.119726E-08    7.511176E-08    1.746860E-07    3.926571E-07    8.536141E-07    1.796076E-06    3.660610E-06
         7.233016E-06    1.386789E-05    2.582402E-05    4.674802E-05    8.234415E-05    1.412651E-04    2.362474E-04    3.854955E-04    6.142895E-04    9.567520E-04
         1.457666E-03    2.174187E-03    3.177251E-03    4.552450E-03    6.400125E-03    8.834450E-03    1.198131E-02    1.597484E-02    2.095263E-02    2.704961E-02
         3.439094E-02    4.308407E-02    5.321061E-02    6.481832E-02    7.791393E-02    9.245724E-02    0.108357        0.125469        0.143598        0.162497    
         0.181879        0.201419        0.220768        0.239562        0.257438        0.274042        0.289042        0.302141        0.313088        0.321679    
         0.327772        0.331282        0.332185        0.330519        0.326376        0.319899        0.311275        0.300728        0.288507        0.274883    
         0.260134        0.244541        0.228379        0.211912        0.195383        0.179015        0.163004        0.147519        0.132700        0.118658    
         0.105477        9.321423E-02    8.190184E-02    7.155171E-02    6.215649E-02    5.369304E-02    4.612586E-02    3.941417E-02    3.355186E-02    2.889060E-02
  28     6.493117E-21    3.476121E-20    1.708980E-19    8.079126E-19    3.712988E-18    1.662638E-17    7.253707E-17    3.081077E-16    1.273024E-15    5.111518E-15
         1.992620E-14    7.534345E-14    2.760627E-13    9.793116E-13    3.360600E-12    1.114694E-11    3.571364E-11    1.104565E-10    3.296224E-10    9.487568E-10
         2.633364E-09    7.047785E-09    1.818915E-08    4.527780E-08    1.087494E-07    2.521434E-07    5.646881E-07    1.222400E-06    2.559776E-06    5.189701E-06
         1.019588E-05    1.942922E-05    3.594587E-05    6.462876E-05    1.130333E-04    1.924900E-04    3.194792E-04    5.172645E-04    8.177331E-04    1.263343E-03
         1.909025E-03    2.823836E-03    4.092120E-03    5.813922E-03    8.104366E-03    1.109180E-02    1.491454E-02    1.971610E-02    2.563906E-02    3.281771E-02
         4.136973E-02    5.138757E-02    6.292981E-02    7.601332E-02    9.060668E-02    0.106625        0.123930        0.142325        0.161563        0.181352    
         0.201358        0.221223        0.240571        0.259023        0.276211        0.291789        0.305447        0.316918        0.325991        0.332512    
         0.336389        0.337594        0.336162        0.332185        0.325808        0.317220        0.306650        0.294352        0.280602        0.265686    
         0.249891        0.233498        0.216777        0.199977        0.183327        0.167027        0.151252        0.136143        0.121817        0.108360    
         9.583032E-02    8.426353E-02    7.367244E-02    6.405078E-02    5.537606E-02    4.761261E-02    4.071487E-02    3.463386E-02    2.935253E-02    2.517292E-02
  29     8.516601E-21    4.584509E-20    2.270173E-19    1.081579E-18    5.009944E-18    2.260886E-17    9.938686E-17    4.252577E-16    1.769461E-15    7.152623E-15
         2.806010E-14    1.067282E-13    3.931975E-13    1.401762E-12    4.831502E-12    1.608705E-11    5.170542E-11    1.603190E-10    4.792918E-10    1.381071E-09
         3.834705E-09    1.025921E-08    2.644820E-08    6.571728E-08    1.574452E-07    3.638894E-07    8.118492E-07    1.749720E-06    3.645919E-06    7.351543E-06
         1.435796E-05    2.718780E-05    4.996398E-05    8.920293E-05    1.548737E-04    2.617494E-04    4.310514E-04    6.923480E-04    1.085618E-03    1.663337E-03
         2.492376E-03    3.655471E-03    5.251962E-03    7.397522E-03    1.022260E-02    1.386939E-02    1.848719E-02    2.422623E-02    3.123006E-02    3.962699E-02
         4.952079E-02    6.098149E-02    7.403676E-02    8.866461E-02    0.104788        0.122272        0.140922        0.160491        0.180679        0.201146    
         0.221522        0.241417        0.260439        0.278203        0.294348        0.308550        0.320528        0.330059        0.336981        0.341196    
         0.342671        0.341440        0.337594        0.331282        0.322697        0.312073        0.299672        0.285775        0.270676        0.254668    
         0.238040        0.221067        0.204005        0.187086        0.170517        0.154473        0.139103        0.124523        0.110820        9.805758E-02
         8.627010E-02    7.547164E-02    6.565640E-02    5.680211E-02    4.887304E-02    4.182297E-02    3.559827E-02    3.014366E-02    2.543323E-02    2.172293E-02
  30     1.113405E-20    6.027689E-20    3.007055E-19    1.444155E-18    6.743765E-18    3.067737E-17    1.359108E-16    5.859427E-16    2.455812E-15    9.995980E-15
         3.947218E-14    1.510565E-13    5.596609E-13    2.005478E-12    6.944010E-12    2.321261E-11    7.485474E-11    2.327041E-10    6.970129E-10    2.010732E-09
         5.585174E-09    1.493662E-08    3.846247E-08    9.538919E-08    2.279363E-07    5.250709E-07    1.166823E-06    2.503306E-06    5.189475E-06    1.040498E-05
         2.019750E-05    3.799599E-05    6.934500E-05    1.229097E-04    2.117901E-04    3.551590E-04    5.802012E-04    9.242799E-04    1.437194E-03    2.183327E-03
         3.243426E-03    4.715702E-03    6.715933E-03    9.376259E-03    1.284242E-02    1.726930E-02    2.281472E-02    2.963172E-02    3.785954E-02    4.761383E-02
         5.897678E-02    7.198764E-02    8.663465E-02    0.102849        0.120500        0.139397        0.159290        0.179873        0.200799        0.221685    
         0.242127        0.261717        0.280054        0.296761        0.311497        0.323970        0.333942        0.341243        0.345769        0.347484    
         0.346420        0.342671        0.336389        0.327772        0.317061        0.304526        0.290456        0.275152        0.258916        0.242043    
         0.224814        0.207492        0.190313        0.173487        0.157195        0.141585        0.126776        0.112858        9.989221E-02    8.791561E-02
         7.694170E-02    6.696453E-02    5.796153E-02    4.989652E-02    4.272270E-02    3.638539E-02    3.082495E-02    2.598175E-02    2.182303E-02    1.856271E-02
  31     1.450609E-20    7.899652E-20    3.971247E-19    1.922985E-18    9.054855E-18    4.153063E-17    1.854777E-16    8.058829E-16    3.403013E-15    1.395080E-14
         5.546301E-14    2.136011E-13    7.960355E-13    2.867731E-12    9.976803E-12    3.348823E-11    1.083630E-10    3.377911E-10    1.013773E-09    2.928011E-09
         8.136335E-09    2.175059E-08    5.594197E-08    1.384662E-07    3.299714E-07    7.575081E-07    1.676438E-06    3.579615E-06    7.381305E-06    1.471323E-05
         2.838006E-05    5.302921E-05    9.609216E-05    1.690470E-04    2.890326E-04    4.808086E-04    7.790050E-04    1.230539E-03    1.897006E-03    2.856778E-03
         4.206484E-03    6.061527E-03    8.555275E-03    1.183663E-02    1.606580E-02    2.140814E-02    2.802630E-02    3.607082E-02    4.566985E-02    5.691847E-02
         6.986841E-02    8.451905E-02    0.100810        0.118618        0.137754        0.157965        0.178943        0.200328        0.221726        0.242720    
         0.262882        0.281795        0.299065        0.314332        0.327291        0.337692        0.345355        0.350170        0.352098        0.351170    
         0.347484        0.341196        0.332512        0.321679        0.308977        0.294704        0.279170        0.262685        0.245552        0.228058    
         0.210473        0.193037        0.175963        0.159435        0.143603        0.128588        0.114479        0.101338        8.920149E-02    7.808186E-02
         6.797269E-02    5.885049E-02    5.067818E-02    4.340799E-02    3.698433E-02    3.134632E-02    2.643028E-02    2.217410E-02    1.854020E-02    1.570475E-02
  32     1.883165E-20    1.031809E-19    5.228222E-19    2.553215E-18    1.212595E-17    5.608924E-17    2.525779E-16    1.106268E-15    4.707697E-15    1.944252E-14
         7.783904E-14    3.017502E-13    1.131393E-12    4.098459E-12    1.432897E-11    4.830305E-11    1.568623E-10    4.903626E-10    1.474695E-09    4.264564E-09
         1.185528E-08    3.167912E-08    8.137660E-08    2.010082E-07    4.776552E-07    1.092624E-06    2.407756E-06    5.115881E-06    1.049100E-05    2.078524E-05
         3.983004E-05    7.390485E-05    1.329344E-04    2.320602E-04    3.935996E-04    6.493568E-04    1.043181E-03    1.633587E-03    2.496180E-03    3.725534E-03
         5.436156E-03    7.762121E-03    1.085505E-02    1.488014E-02    2.001016E-02    2.641746E-02    3.426427E-02    4.369184E-02    5.480897E-02    6.768084E-02
         8.231903E-02    9.867342E-02    0.116627        0.135994        0.156520        0.177892        0.199740        0.221658        0.243211        0.263954    
         0.283452        0.301289        0.317090        0.330533        0.341357        0.349369        0.354455        0.356572        0.355753        0.352098    
         0.345769        0.336981        0.325991        0.313088        0.298579        0.282786        0.266028        0.248615        0.230844        0.212987    
         0.195292        0.177975        0.161221        0.145181        0.129978        0.115699        0.102407        9.013594E-02    7.889777E-02    6.868432E-02
         5.947064E-02    5.121818E-02    4.387784E-02    3.739276E-02    3.170093E-02    2.673737E-02    2.243637E-02    1.873506E-02    1.559285E-02    1.315266E-02
  33     2.435544E-20    1.342937E-19    6.860532E-19    3.379764E-18    1.619373E-17    7.556091E-17    3.431746E-16    1.515565E-15    6.501131E-15    2.705518E-14
         1.091043E-13    4.258391E-13    1.606747E-12    5.853940E-12    2.057165E-11    6.965684E-11    2.270533E-10    7.118870E-10    2.145493E-09    6.212460E-09
         1.727786E-08    4.614900E-08    1.183926E-07    2.918153E-07    6.913927E-07    1.575656E-06    3.456754E-06    7.307187E-06    1.489887E-05    2.933298E-05
         5.582890E-05    1.028431E-04    1.835789E-04    3.179217E-04    5.347851E-04    8.747869E-04    1.393088E-03    2.162132E-03    3.273946E-03    4.841575E-03
         6.999232E-03    9.900724E-03    1.371585E-02    1.862458E-02    2.480903E-02    3.244345E-02    4.168280E-02    5.265051E-02    6.542629E-02    8.003507E-02
         9.643784E-02    0.114525        0.134116        0.154954        0.176722        0.199040        0.221487        0.243611        0.264949        0.285043    
         0.303459        0.319803        0.333734        0.344977        0.353332        0.358674        0.360961        0.360225        0.356572        0.350170    
         0.341243        0.330059        0.316918        0.302141        0.286058        0.268999        0.251285        0.233219        0.215080        0.197120    
         0.179559        0.162583        0.146346        0.130969        0.116538        0.103115        9.073298E-02    7.940068E-02    6.910824E-02    5.982865E-02
         5.152138E-02    4.413554E-02    3.761269E-02    3.188939E-02    2.689947E-02    2.257597E-02    1.885289E-02    1.566818E-02    1.297992E-02    1.090217E-02
  34     3.137581E-20    1.741424E-19    8.971577E-19    4.459717E-18    2.156322E-17    1.015228E-16    4.651552E-16    2.071888E-15    8.961098E-15    3.758838E-14
         1.527228E-13    6.003012E-13    2.279877E-12    8.356106E-12    2.952172E-11    1.004273E-10    3.286285E-10    1.033544E-09    3.121886E-09    9.051970E-09
         2.518646E-08    6.724222E-08    1.722722E-07    4.236688E-07    1.000698E-06    2.271699E-06    4.960697E-06    1.043057E-05    2.114073E-05    4.135074E-05
         7.814923E-05    1.428837E-04    2.530465E-04    4.346280E-04    7.248824E-04    1.175361E-03    1.854963E-03    2.852657E-03    4.279432E-03    6.268995E-03
         8.976740E-03    1.257658E-02    1.725540E-02    2.320505E-02    3.061212E-02    3.964590E-02    5.044536E-02    6.310593E-02    7.766719E-02    9.410256E-02
         0.112312        0.132118        0.153267        0.175432        0.198227        0.221215        0.243926        0.265875        0.286584        0.305595    
         0.322494        0.336921        0.348588        0.357282        0.362873        0.365314        0.364640        0.360961        0.354455        0.345355    
         0.333942        0.320528        0.305447        0.289042        0.271654        0.253613        0.235232        0.216797        0.198563        0.180754    
         0.163559        0.147131        0.131589        0.117021        0.103485        9.101135E-02    7.960650E-02    6.925778E-02    5.993552E-02    5.159672E-02
         4.418825E-02    3.764969E-02    3.191592E-02    2.691936E-02    2.259190E-02    1.886642E-02    1.567826E-02    1.296753E-02    1.069239E-02    8.942316E-03
  35     4.025358E-20    2.249405E-19    1.168997E-18    5.865165E-18    2.862529E-17    1.360246E-16    6.289072E-16    2.826072E-15    1.232759E-14    5.213394E-14
         2.134747E-13    8.452559E-13    3.232067E-12    1.191978E-11    4.234660E-11    1.447538E-10    4.756049E-10    1.500617E-09    4.543332E-09    1.319219E-08
         3.672382E-08    9.799777E-08    2.507108E-07    6.151320E-07    1.448256E-06    3.274389E-06    7.115762E-06    1.487903E-05    2.997034E-05    5.822450E-05
         1.092375E-04    1.981776E-04    3.481153E-04    5.928446E-04    9.800817E-04    1.574811E-03    2.462429E-03    3.751233E-03    5.573729E-03    8.086206E-03
         1.146611E-02    1.590683E-02    2.160987E-02    2.877437E-02    3.758458E-02    4.819599E-02    6.072096E-02    7.521518E-02    9.166598E-02    0.109984    
         0.129997        0.151452        0.174020        0.197301        0.220844        0.244159        0.266741        0.288085        0.307712        0.325183    
         0.340122        0.352221        0.361256        0.367089        0.369673        0.369042        0.365314        0.358674        0.349369        0.337692    
         0.323970        0.308550        0.291789        0.274042        0.255649        0.236932        0.218183        0.199663        0.181600        0.164184    
         0.147568        0.131870        0.117177        0.103542        9.099327E-02    7.953474E-02    6.914988E-02    5.980582E-02    5.145660E-02    4.404638E-02
         3.751242E-02    3.178761E-02    2.680276E-02    2.248844E-02    1.877654E-02    1.560146E-02    1.290121E-02    1.061914E-02    8.714709E-03    7.256780E-03
  36     5.142056E-20    2.893760E-19    1.517444E-18    7.686533E-18    3.787783E-17    1.817157E-16    8.480471E-16    3.845647E-15    1.692348E-14    7.217825E-14
         2.979416E-13    1.188692E-12    4.577490E-12    1.699106E-11    6.071342E-11    2.085875E-10    6.882498E-10    2.178881E-09    6.613044E-09    1.923045E-08
         5.355953E-08    1.428528E-07    3.649224E-07    8.931671E-07    2.095782E-06    4.718351E-06    1.020210E-05    2.120945E-05    4.244649E-05    8.188243E-05
         1.524617E-04    2.743757E-04    4.779038E-04    8.067403E-04    1.321607E-03    2.103818E-03    3.258318E-03    4.915652E-03    7.232227E-03    1.038831E-02
         1.458332E-02    2.002817E-02    2.693470E-02    3.550272E-02    4.590519E-02    5.827276E-02    7.267879E-02    8.912618E-02    0.107537        0.127748    
         0.149507        0.172479        0.196256        0.220370        0.244310        0.267548        0.289553        0.309821        0.327888        0.343356    
         0.355899        0.365281        0.371357        0.374074        0.373472        0.369673        0.362873        0.353332        0.341357        0.327291    
         0.311497        0.294348        0.276211        0.257438        0.238361        0.219280        0.200462        0.182137        0.164496        0.147693    
         0.131844        0.117034        0.103312        9.070325E-02    7.920738E-02    6.880410E-02    5.945681E-02    5.111606E-02    4.372296E-02    3.721205E-02
         3.151396E-02    2.655765E-02    2.227221E-02    1.858843E-02    1.543993E-02    1.276402E-02    1.050244E-02    8.602600E-03    7.026212E-03    5.825198E-03
  37     6.538839E-20    3.706817E-19    1.961928E-18    1.003641E-17    4.995100E-17    2.420016E-16    1.140336E-15    5.219932E-15    2.318147E-14    9.973845E-14
         4.151601E-13    1.669465E-12    6.476246E-12    2.420125E-11    8.700086E-11    3.004806E-10    9.958621E-10    3.163869E-09    9.627204E-09    2.803914E-08
         7.813379E-08    2.082880E-07    5.312510E-07    1.296936E-06    3.032498E-06    6.797041E-06    1.461943E-05    3.020990E-05    6.005387E-05    1.150012E-04
         2.124467E-04    3.791469E-04    6.546334E-04    1.095056E-03    1.777144E-03    2.801815E-03    4.296840E-03    6.417870E-03    9.347182E-03    1.328956E-02
         1.846498E-02    2.509808E-02    3.340469E-02    4.357624E-02    5.576308E-02    7.005792E-02    8.648109E-02    0.104969        0.125366        0.147424    
         0.170804        0.195087        0.219788        0.244377        0.268298        0.290993        0.311930        0.330620        0.346639        0.359644    
         0.369384        0.375704        0.378551        0.377964        0.374074        0.367089        0.357282        0.344977        0.330533        0.314332    
         0.296761        0.278203        0.259023        0.239562        0.220130        0.200999        0.182401        0.164530        0.147539        0.131543    
         0.116622        0.102823        9.016684E-02    7.864778E-02    6.824160E-02    5.890746E-02    5.059204E-02    4.323292E-02    3.676164E-02    3.110629E-02
         2.619375E-02    2.195149E-02    1.830910E-02    1.519933E-02    1.255893E-02    1.032921E-02    8.456447E-03    6.892718E-03    5.602640E-03    4.624485E-03
  38     8.275547E-20    4.727046E-19    2.526011E-18    1.305387E-17    6.563666E-17    3.212322E-16    1.528813E-15    7.066505E-15    3.167914E-14    1.375425E-13
         5.775031E-13    2.341385E-12    9.152429E-12    3.444253E-11    1.245997E-10    4.327152E-10    1.440786E-09    4.594344E-09    1.401758E-08    4.089284E-08
         1.140144E-07    3.037716E-07    7.735229E-07    1.883321E-06    4.387347E-06    9.788302E-06    2.093756E-05    4.299416E-05    8.487064E-05    1.612881E-04
         2.955246E-04    5.228630E-04    8.946176E-04    1.482463E-03    2.382606E-03    3.719180E-03    5.646122E-03    8.346765E-03    1.203046E-02    1.692577E-02
         2.326999E-02    3.129545E-02    4.121301E-02    5.319414E-02    6.735277E-02    8.372870E-02    0.102274        0.122844        0.145195        0.168985    
         0.193785        0.219093        0.244355        0.268988        0.292405        0.314044        0.333387        0.349985        0.363473        0.373584    
         0.380156        0.383129        0.382548        0.378551        0.371357        0.361256        0.348588        0.333734        0.317090        0.299065    
         0.280054        0.260439        0.240571        0.220768        0.201307        0.182427        0.164320        0.147139        0.130998        0.115971    
         0.102104        8.940960E-02    7.787964E-02    6.748418E-02    5.817768E-02    4.990251E-02    4.259239E-02    3.617553E-02    3.057723E-02    2.572209E-02
         2.153584E-02    1.794673E-02    1.488661E-02    1.229164E-02    1.010284E-02    8.266305E-03    6.733367E-03    5.461106E-03    4.417505E-03    3.630048E-03
  39     1.042129E-19    5.999691E-19    3.237978E-18    1.690914E-17    8.592227E-17    4.249267E-16    2.043192E-15    9.539366E-15    4.318410E-14    1.892663E-13
         8.018585E-13    3.278792E-12    1.291908E-11    4.897397E-11    1.783384E-10    6.229206E-10    2.084203E-09    6.671863E-09    2.041373E-08    5.965435E-08
         1.664197E-07    4.431414E-07    1.126479E-06    2.734947E-06    6.346640E-06    1.409093E-05    2.996790E-05    6.113398E-05    1.197999E-04    2.258645E-04
         4.103387E-04    7.194993E-04    1.219538E-03    2.001276E-03    3.184315E-03    4.919828E-03    7.391121E-03    1.081115E-02    1.541635E-02    2.145648E-02
         2.918064E-02    3.882006E-02    5.056883E-02    6.456404E-02    8.086721E-02    9.944867E-02    0.120177        0.142813        0.167014        0.192341    
         0.218274        0.244235        0.269613        0.293789        0.316167        0.336198        0.353405        0.367401        0.377901        0.384732    
         0.387833        0.387250        0.383129        0.375704        0.365281        0.352221        0.336921        0.319803        0.301289        0.281795    
         0.261717        0.241417        0.221223        0.201419        0.182244        0.163895        0.146522        0.130236        0.115108        0.101178    
         8.845615E-02    7.692613E-02    6.655346E-02    5.728745E-02    4.906578E-02    4.181800E-02    3.546869E-02    2.994013E-02    2.515450E-02    2.103562E-02
         1.751034E-02    1.450954E-02    1.196879E-02    9.828815E-03    8.035653E-03    6.540700E-03    5.300636E-03    4.277654E-03    3.443347E-03    2.816858E-03
  40     1.305458E-19    7.577247E-19    4.131398E-18    2.180862E-17    1.120288E-16    5.600360E-16    2.721550E-15    1.283909E-14    5.871163E-14    2.598423E-13
         1.111200E-12    4.584107E-12    1.821259E-11    6.956945E-11    2.550854E-10    8.963827E-10    3.014486E-09    9.689183E-09    2.973383E-08    8.704715E-08
         2.429856E-07    6.466288E-07    1.640787E-06    3.971824E-06    9.179489E-06    2.027694E-05    4.286467E-05    8.684386E-05    1.688887E-04    3.157865E-04
         5.686471E-04    9.878110E-04    1.658072E-03    2.693584E-03    4.241629E-03    6.484264E-03    9.636893E-03    1.394294E-02    1.966419E-02    2.706666E-02
         3.640278E-02    4.789078E-02    6.169300E-02    7.789514E-02    9.648832E-02    0.117356        0.140268        0.164880        0.190744        0.217322    
         0.244011        0.270169        0.295142        0.318298        0.339056        0.356908        0.371440        0.382350        0.389453        0.392683    
[...]
         1.514765E-09    1.453530E-09    1.351904E-09    1.223629E-09    1.081411E-09    9.358315E-10    7.949037E-10    6.641037E-10    5.466790E-10    4.440908E-10
         3.564800E-10    2.830943E-10    2.226416E-10    1.735620E-10    1.342223E-10    1.030447E-10    7.858382E-11    5.956531E-11    4.489798E-11    3.366907E-11
         2.512953E-11    1.867442E-11    1.382180E-11    1.019221E-11    7.489919E-12    5.486557E-12    4.007147E-12    2.918591E-12    2.120295E-12    1.536666E-12
         1.111200E-12    8.018585E-13    5.775031E-13    4.151601E-13    2.979416E-13    2.134747E-13    1.527228E-13    1.091043E-13    7.783904E-14    5.546301E-14
         3.947218E-14    2.806010E-14    1.992620E-14    1.413584E-14    1.001853E-14    7.094027E-15    5.018891E-15    3.547866E-15    2.506040E-15    1.768827E-15
         1.247595E-15    8.793570E-16    6.194005E-16    4.360160E-16    3.067371E-16    2.156603E-16    1.515373E-16    1.064187E-16    7.469097E-17    5.239262E-17
         3.673015E-17    2.573491E-17    1.802042E-17    1.261079E-17    8.819539E-18    6.164027E-18    4.305150E-18    3.005036E-18    2.099717E-18    1.506112E-18
  91     2.414323E-28    2.136149E-27    1.902531E-26    1.673151E-25    1.448164E-24    1.231149E-23    1.025842E-22    8.356976E-22    6.636777E-21    5.120597E-20
         3.822761E-19    2.747998E-18    1.890973E-17    1.236700E-16    7.618983E-16    4.372842E-15    2.305577E-14    1.097030E-13    4.606116E-13    1.660807E-12
         4.997135E-12    1.233363E-11    2.540408E-11    4.493852E-11    7.015324E-11    9.883965E-11    1.279351E-10    1.542776E-10    1.752608E-10    1.892288E-10
         1.955811E-10    1.946496E-10    1.874458E-10    1.753695E-10    1.599451E-10    1.426218E-10    1.246451E-10    1.069955E-10    9.037737E-11    7.524122E-11
         6.182513E-11    5.020235E-11    4.032799E-11    3.207981E-11    2.529139E-11    1.977703E-11    1.534950E-11    1.183146E-11    9.062189E-12    6.900712E-12
         5.226556E-12    3.938898E-12    2.954820E-12    2.207141E-12    1.642117E-12    1.217233E-12    8.991860E-13    6.621131E-13    4.860874E-13    3.558614E-13
         2.598423E-13    1.892663E-13    1.375425E-13    9.973845E-14    7.217825E-14    5.213394E-14    3.758838E-14    2.705518E-14    1.944252E-14    1.395080E-14
         9.995980E-15    7.152623E-15    5.111518E-15    3.648448E-15    2.601159E-15    1.852470E-15    1.317906E-15    9.366726E-16    6.650917E-16    4.718281E-16
         3.344348E-16    2.368533E-16    1.676107E-16    1.185196E-16    8.374440E-17    5.912988E-17    4.172068E-17    2.941673E-17    2.072716E-17    1.459451E-17
         1.026937E-17    7.221050E-18    5.074061E-18    3.562899E-18    2.499977E-18    1.752843E-18    1.228049E-18    8.597813E-19    6.025228E-19    4.333735E-19
  92     4.020035E-29    3.480522E-28    3.025739E-27    2.594238E-26    2.186511E-25    1.807847E-24    1.463126E-23    1.156141E-22    8.893427E-22    6.636777E-21
         4.785263E-20    3.317495E-19    2.198598E-18    1.383107E-17    8.188511E-17    4.514310E-16    2.287228E-15    1.047823E-14    4.254986E-14    1.496803E-13
         4.459329E-13    1.111583E-12    2.346780E-12    4.292284E-12    6.959336E-12    1.020319E-11    1.374868E-11    1.725214E-11    2.037419E-11    2.284040E-11
         2.447749E-11    2.522272E-11    2.511199E-11    2.425505E-11    2.280622E-11    2.093695E-11    1.881404E-11    1.658480E-11    1.436894E-11    1.225601E-11
         1.030665E-11    8.556396E-12    7.020450E-12    5.698764E-12    4.580695E-12    3.648957E-12    2.882760E-12    2.260136E-12    1.759556E-12    1.360961E-12
         1.046338E-12    7.999677E-13    6.084441E-13    4.605476E-13    3.470390E-13    2.604138E-13    1.946491E-13    1.449622E-13    1.075902E-13    7.959766E-14
         5.871163E-14    4.318410E-14    3.167914E-14    2.318147E-14    1.692348E-14    1.232759E-14    8.961098E-15    6.501131E-15    4.707697E-15    3.403013E-15
         2.455812E-15    1.769461E-15    1.273024E-15    9.145662E-16    6.561560E-16    4.701553E-16    3.364685E-16    2.405144E-16    1.717332E-16    1.224913E-16
         8.727978E-17    6.212936E-17    4.418462E-17    3.139430E-17    2.228684E-17    1.580794E-17    1.120315E-17    7.933234E-18    5.613209E-18    3.968499E-18
         2.803477E-18    1.978895E-18    1.395728E-18    9.836178E-19    6.926158E-19    4.872928E-19    3.425399E-19    2.405975E-19    1.691397E-19    1.220155E-19
  93     6.456034E-30    5.471858E-29    4.645005E-28    3.884672E-27    3.190216E-26    2.567249E-25    2.019865E-24    1.549769E-23    1.156141E-22    8.356976E-22
         5.829312E-21    3.905083E-20    2.498080E-19    1.515546E-18    8.648128E-18    4.595112E-17    2.245795E-16    9.947237E-16    3.923541E-15    1.351667E-14
         3.994590E-14    1.003811E-13    2.164006E-13    4.074792E-13    6.833184E-13    1.038545E-12    1.451946E-12    1.890237E-12    2.314667E-12    2.688188E-12
         2.981286E-12    3.175407E-12    3.263849E-12    3.250561E-12    3.147659E-12    2.972408E-12    2.744320E-12    2.482763E-12    2.205237E-12    1.926358E-12
         1.657428E-12    1.406461E-12    1.178502E-12    9.761176E-13    7.999326E-13    6.491615E-13    5.220739E-13    4.163805E-13    3.295329E-13    2.589420E-13
         2.021272E-13    1.568082E-13    1.209539E-13    9.279984E-14    7.084449E-14    5.383177E-14    4.072636E-14    3.068578E-14    2.303212E-14    1.722536E-14
         1.283909E-14    9.539366E-15    7.066505E-15    5.219932E-15    3.845647E-15    2.826072E-15    2.071888E-15    1.515565E-15    1.106268E-15    8.058829E-16
         5.859427E-16    4.252577E-16    3.081077E-16    2.228657E-16    1.609566E-16    1.160730E-16    8.358743E-17    6.011260E-17    4.317487E-17    3.097144E-17
         2.219109E-17    1.588193E-17    1.135413E-17    8.108611E-18    5.784904E-18    4.123023E-18    2.935730E-18    2.088365E-18    1.484203E-18    1.053858E-18
         7.476098E-19    5.298748E-19    3.752106E-19    2.654465E-19    1.876173E-19    1.324814E-19    9.345793E-20    6.587082E-20    4.646260E-20    3.362284E-20
  94     1.003161E-30    8.327213E-30    6.905935E-29    5.636654E-28    4.513327E-27    3.537692E-26    2.708341E-25    2.019865E-24    1.463126E-23    1.025842E-22
         6.933746E-22    4.496659E-21    2.782402E-20    1.631826E-19    8.999259E-19    4.622633E-18    2.186659E-17    9.397975E-17    3.613614E-16    1.222848E-15
         3.589762E-15    9.081534E-15    1.993095E-14    3.849825E-14    6.653222E-14    1.044740E-13    1.510828E-13    2.035121E-13    2.577864E-13    3.095043E-13
         3.545614E-13    3.897252E-13    4.129717E-13    4.235704E-13    4.219630E-13    4.095061E-13    3.881563E-13    3.601578E-13    3.277764E-13    2.931015E-13
         2.579188E-13    2.236491E-13    1.913377E-13    1.616803E-13    1.350711E-13    1.116604E-13    9.141398E-14    7.416786E-14    5.967495E-14    4.764302E-14
         3.776350E-14    2.973208E-14    2.326240E-14    1.809420E-14    1.399733E-14    1.077266E-14    8.251107E-15    6.291322E-15    4.776730E-15    3.612337E-15
         2.721550E-15    2.043192E-15    1.528813E-15    1.140336E-15    8.480471E-16    6.289072E-16    4.651552E-16    3.431746E-16    2.525779E-16    1.854777E-16
         1.359108E-16    9.938686E-17    7.253707E-17    5.284306E-17    3.842827E-17    2.789872E-17    2.022188E-17    1.463503E-17    1.057620E-17    7.632304E-18
         5.500434E-18    3.958914E-18    2.845861E-18    2.043284E-18    1.465338E-18    1.049676E-18    7.510948E-19    5.368663E-19    3.833348E-19    2.734244E-19
         1.948263E-19    1.386791E-19    9.861137E-20    7.004761E-20    4.970556E-20    3.523346E-20    2.494813E-20    1.764783E-20    1.249209E-20    9.069849E-21
  95     1.512370E-31    1.230194E-30    9.972306E-30    7.948452E-29    6.209640E-28    4.744718E-27    3.537692E-26    2.567249E-25    1.807847E-24    1.231149E-23
         8.075821E-23    5.078957E-22    3.045876E-21    1.730685E-20    9.247076E-20    4.604530E-19    2.114406E-18    8.845450E-18    3.325648E-17    1.108174E-16
         3.234782E-16    8.229982E-16    1.834293E-15    3.623527E-15    6.433392E-15    1.040634E-14    1.552381E-14    2.158294E-14    2.821753E-14    3.495491E-14
         4.129122E-14    4.676571E-14    5.101887E-14    5.382629E-14    5.510709E-14    5.491126E-14    5.339267E-14    5.077552E-14    4.732028E-14    4.329398E-14
         3.894716E-14    3.449837E-14    3.012578E-14    2.596457E-14    2.210879E-14    1.861592E-14    1.551305E-14    1.280345E-14    1.047295E-14    8.495542E-15
         6.838153E-15    5.464324E-15    4.337000E-15    3.420477E-15    2.681648E-15    2.090713E-15    1.621483E-15    1.251388E-15    9.613012E-16    7.352436E-16
         5.600360E-16    4.249267E-16    3.212322E-16    2.420016E-16    1.817157E-16    1.360246E-16    1.015228E-16    7.556091E-17    5.608924E-17    4.153063E-17
         3.067737E-17    2.260886E-17    1.662638E-17    1.220168E-17    8.936876E-18    6.533337E-18    4.767645E-18    3.473172E-18    2.526002E-18    1.834238E-18
         1.329901E-18    9.628305E-19    6.960973E-19    5.025747E-19    3.623769E-19    2.609554E-19    1.876862E-19    1.348251E-19    9.673682E-20    6.932711E-20
         4.962610E-20    3.548265E-20    2.534089E-20    1.807698E-20    1.288026E-20    9.166677E-21    6.516031E-21    4.626768E-21    3.287148E-21    2.394877E-21
  96     2.217742E-32    1.768695E-31    1.402215E-30    1.092086E-29    8.330177E-29    6.209640E-28    4.513327E-27    3.190216E-26    2.186511E-25    1.448164E-24
         9.232492E-24    5.640090E-23    3.284192E-22    1.811645E-21    9.399272E-21    4.548262E-20    2.032861E-19    8.300341E-19    3.059247E-18    1.005805E-17
         2.921787E-17    7.469795E-17    1.687380E-16    3.400267E-16    6.185313E-16    1.027911E-15    1.577896E-15    2.259166E-15    3.042350E-15    3.881368E-15
         4.720049E-15    5.500256E-15    6.169660E-15    6.687744E-15    7.029278E-15    7.185184E-15    7.161179E-15    6.974912E-15    6.652322E-15    6.223893E-15
         5.721294E-15    5.174704E-15    4.610922E-15    4.052261E-15    3.516109E-15    3.015001E-15    2.557055E-15    2.146614E-15    1.784981E-15    1.471150E-15
         1.202480E-15    9.752804E-16    7.852825E-16    6.280064E-16    4.990285E-16    3.941642E-16    3.095810E-16    2.418578E-16    1.880041E-16    1.454517E-16
         1.120288E-16    8.592227E-17    6.563666E-17    4.995100E-17    3.787783E-17    2.862529E-17    2.156322E-17    1.619373E-17    1.212595E-17    9.054855E-18
         6.743765E-18    5.009944E-18    3.712988E-18    2.745506E-18    2.025695E-18    1.491491E-18    1.095977E-18    8.038090E-19    5.884502E-19    4.300348E-19
         3.137360E-19    2.285173E-19    1.661854E-19    1.206726E-19    8.749574E-20    6.334994E-20    4.580390E-20    3.307269E-20    2.384839E-20    1.717433E-20
         1.235205E-20    8.872393E-21    6.364837E-21    4.560139E-21    3.262950E-21    2.331738E-21    1.664111E-21    1.186207E-21    8.459591E-22    6.185856E-22
  97     3.170305E-33    2.480380E-32    1.924286E-31    1.465345E-30    1.092086E-29    7.948452E-29    5.636654E-28    3.884672E-27    2.594238E-26    1.673151E-25
         1.038162E-24    6.169955E-24    3.494398E-23    1.874885E-22    9.465126E-22    4.460825E-21    1.945160E-20    7.770105E-20    2.813544E-19    9.141862E-19
         2.644528E-18    6.789427E-18    1.551880E-17    3.183099E-17    5.918522E-17    1.008150E-16    1.588930E-16    2.337961E-16    3.236928E-16    4.245736E-16
         5.307095E-16    6.354140E-16    7.319282E-16    8.142470E-16    8.777503E-16    9.195675E-16    9.386665E-16    9.357083E-16    9.127362E-16    8.727775E-16
         8.194262E-16    7.564608E-16    6.875316E-16    6.159321E-16    5.444560E-16    4.753308E-16    4.102116E-16    3.502199E-16    2.960105E-16    2.478521E-16
         2.057119E-16    1.693356E-16    1.383185E-16    1.121656E-16    9.033897E-17    7.229369E-17    5.750384E-17    4.547931E-17    3.577588E-17    2.799981E-17
         2.180862E-17    1.690914E-17    1.305387E-17    1.003641E-17    7.686533E-18    5.865165E-18    4.459717E-18    3.379764E-18    2.553215E-18    1.922985E-18
         1.444155E-18    1.081579E-18    8.079126E-19    6.019809E-19    4.474672E-19    3.318523E-19    2.455702E-19    1.813399E-19    1.336394E-19    9.829551E-20
         7.216435E-20    5.288483E-20    3.868888E-20    2.825612E-20    2.060311E-20    1.499916E-20    1.090267E-20    7.913085E-21    5.734809E-21    4.150140E-21
         2.999060E-21    2.164174E-21    1.559505E-21    1.122199E-21    8.063800E-22    5.786195E-22    4.145987E-22    2.966850E-22    2.124211E-22    1.560371E-22
  98     4.427316E-34    3.400101E-33    2.582811E-32    1.924286E-31    1.402215E-30    9.972306E-30    6.905935E-29    4.645005E-28    3.025739E-27    1.902531E-26
         1.150430E-25    6.661239E-25    3.675218E-24    1.921308E-23    9.455739E-23    4.349030E-22    1.854022E-21    7.260468E-21    2.587652E-20    8.320731E-20
         2.398178E-19    6.179644E-19    1.427303E-18    2.974366E-18    5.641285E-18    9.828888E-18    1.587345E-17    2.395804E-17    3.404309E-17    4.583575E-17
         5.880621E-17    7.224662E-17    8.535860E-17    9.735053E-17    1.075267E-16    1.153546E-16    1.205040E-16    1.228563E-16    1.224886E-16    1.196394E-16
         1.146651E-16    1.079923E-16    1.000745E-16    9.135528E-17    8.224039E-17    7.307992E-17    6.415858E-17    5.569346E-17    4.783719E-17    4.068476E-17
         3.428239E-17    2.863724E-17    2.372682E-17    1.950773E-17    1.592308E-17    1.290865E-17    1.039764E-17    8.324231E-18    6.626024E-18    5.245606E-18
         4.131398E-18    3.237978E-18    2.526011E-18    1.961928E-18    1.517444E-18    1.168997E-18    8.971577E-19    6.860532E-19    5.228222E-19    3.971247E-19
         3.007055E-19    2.270173E-19    1.708980E-19    1.283010E-19    9.607023E-20    7.175649E-20    5.346778E-20    3.974879E-20    2.948463E-20    2.182452E-20
         1.612147E-20    1.188524E-20    8.745478E-21    6.423303E-21    4.709305E-21    3.446679E-21    2.518314E-21    1.836966E-21    1.337793E-21    9.727145E-22
         7.061552E-22    5.118471E-22    3.704335E-22    2.676777E-22    1.931283E-22    1.391262E-22    1.000701E-22    7.188249E-23    5.171051E-23    3.843080E-23
  99     6.054684E-35    4.567810E-34    3.400101E-33    2.480380E-32    1.768695E-31    1.230194E-30    8.327213E-30    5.471858E-29    3.480522E-28    2.136149E-27
         1.260409E-26    7.120046E-26    3.832613E-25    1.955313E-24    9.397327E-24    4.225618E-23    1.764385E-22    6.785743E-22    2.384176E-21    7.595582E-21
         2.182087E-20    5.641135E-20    1.315087E-19    2.779931E-19    5.368622E-19    9.550061E-19    1.577540E-18    2.438181E-18    3.550020E-18    4.899095E-18
         6.442462E-18    8.111253E-18    9.818032E-18    1.146687E-17    1.296418E-17    1.422850E-17    1.519779E-17    1.583368E-17    1.612249E-17    1.607341E-17
         1.571476E-17    1.508896E-17    1.424725E-17    1.324453E-17    1.213511E-17    1.096925E-17    9.790944E-18    8.636566E-18    7.534453E-18    6.505117E-18
         5.561935E-18    4.712130E-18    3.957883E-18    3.297458E-18    2.726253E-18    2.237741E-18    1.824241E-18    1.477557E-18    1.189446E-18    9.519717E-19
         7.577247E-19    5.999691E-19    4.727046E-19    3.706817E-19    2.893760E-19    2.249405E-19    1.741424E-19    1.342937E-19    1.031809E-19    7.899652E-20
         6.027689E-20    4.584509E-20    3.476121E-20    2.627934E-20    1.981097E-20    1.489430E-20    1.116875E-20    8.354204E-21    6.233947E-21    4.641075E-21
         3.447528E-21    2.555438E-21    1.890265E-21    1.395432E-21    1.028135E-21    7.560849E-22    5.549981E-22    4.066605E-22    2.974459E-22    2.171868E-22
         1.583140E-22    1.152058E-22    8.369589E-23    6.070335E-23    4.395424E-23    3.177375E-23    2.293140E-23    1.653320E-23    1.201062E-23    9.589774E-24
 100     8.150906E-36    6.054684E-35    4.427316E-34    3.170305E-33    2.217742E-32    1.512370E-31    1.003161E-30    6.456034E-30    4.020035E-29    2.414323E-28
         1.393544E-27    7.699507E-27    4.053723E-26    2.023362E-25    9.519881E-25    4.195291E-24    1.719701E-23    6.509205E-23    2.258560E-22    7.137446E-22
         2.044721E-21    5.300923E-21    1.245815E-20    2.666685E-20    5.232740E-20    9.481632E-20    1.598122E-19    2.523026E-19    3.754772E-19    5.297666E-19
         7.122692E-19    9.167042E-19    1.133918E-18    1.352826E-18    1.561627E-18    1.749038E-18    1.905416E-18    2.023541E-18    2.099091E-18    2.130698E-18
         2.119746E-18    2.069890E-18    1.986482E-18    1.875919E-18    1.745055E-18    1.600662E-18    1.449041E-18    1.295726E-18    1.145325E-18    1.001459E-18
         8.667761E-19    7.430377E-19    6.312251E-19    5.316806E-19    4.442383E-19    3.683602E-19    3.032484E-19    2.479481E-19    2.014251E-19    1.626308E-19
         1.305458E-19    1.042129E-19    8.275547E-20    6.538839E-20    5.142056E-20    4.025358E-20    3.137581E-20    2.435544E-20    1.883165E-20    1.450609E-20
         1.113405E-20    8.516601E-21    6.493117E-21    4.934871E-21    3.739299E-21    2.825215E-21    2.128675E-21    1.599604E-21    1.198960E-21    8.964561E-22
         6.686879E-22    4.976517E-22    3.695455E-22    2.738310E-22    2.024870E-22    1.494302E-22    1.100596E-22    8.090737E-23    5.936563E-23    4.347958E-23
         3.178706E-23    2.319750E-23    1.689912E-23    1.228923E-23    8.921232E-24    6.464988E-24    4.677325E-24    3.385317E-24    2.547107E-24    3.358340E-24

 CONCENTRATION WILL BE SAVED ON UNIT 1028 AT END OF TIME STEP  100, STRESS PERIOD    1


  MASS BUDGET FOR ENTIRE MODEL AT END OF TIME STEP  100, STRESS PERIOD   1
  ---------------------------------------------------------------------------------------------------

     CUMULATIVE MASS      M       RATES FOR THIS TIME STEP      M/T          PACKAGE NAME    
     ------------------                 ------------------------                     ----------------

           IN:                                      IN:
           ---                                      ---
     STORAGE-AQUEOUS =       5.9465E-07       STORAGE-AQUEOUS =       3.6572E-10     MST                              
                 WEL =       10000.0000                   WEL =          10.0000     SSM_WEL-1                        
                 CHD =           0.0000                   CHD =           0.0000     SSM_CHD-1                        

            TOTAL IN =       10000.0000              TOTAL IN =          10.0000

          OUT:                                     OUT:
          ----                                     ----
     STORAGE-AQUEOUS =        9625.0335       STORAGE-AQUEOUS =           6.3601     MST                              
                 WEL =           0.0000                   WEL =           0.0000     SSM_WEL-1                        
                 CHD =         374.9665                   CHD =           3.6399     SSM_CHD-1                        

           TOTAL OUT =       10000.0000             TOTAL OUT =          10.0000

            IN - OUT =      -2.8745E-06              IN - OUT =      -1.3478E-08

 PERCENT DISCREPANCY =          -0.00     PERCENT DISCREPANCY =          -0.00




         TIME SUMMARY AT END OF TIME STEP  100 IN STRESS PERIOD    1
                    SECONDS     MINUTES      HOURS       DAYS        YEARS
                    -----------------------------------------------------------
   TIME STEP LENGTH 8.64000E+05  14400.      240.00      10.000     2.73785E-02
 STRESS PERIOD TIME 8.64000E+07 1.44000E+06  24000.      1000.0      2.7379    
         TOTAL TIME 8.64000E+07 1.44000E+06  24000.      1000.0      2.7379    


end timestep

