                                   MODFLOW 6
                U.S. GEOLOGICAL SURVEY MODULAR HYDROLOGIC MODEL
                             TRANSPORT MODEL (GWT)
                            VERSION 6.6.0 12/20/2024

   MODFLOW 6 compiled Dec 31 2024 17:10:16 with Intel(R) Fortran Intel(R) 64
   Compiler Classic for applications running on Intel(R) 64, Version 2021.7.0
                             Build 20220726_000000

This software has been approved for release by the U.S. Geological 
Survey (USGS). Although the software has been subjected to rigorous 
review, the USGS reserves the right to update the software as needed 
pursuant to further analysis and review. No warranty, expressed or 
implied, is made by the USGS or the U.S. Government as to the 
functionality of the software and related material nor shall the 
fact of release constitute any such warranty. Furthermore, the 
software is released on condition that neither the USGS nor the U.S. 
Government shall be held liable for any damages resulting from its 
authorized or unauthorized use. Also refer to the USGS Water 
Resources Software User Rights Notice for complete use, copyright, 
and distribution information.


As a work of the United States Government, this USGS product is 
in the public domain within the United States. You can copy, 
modify, distribute, and perform the work, even for commercial 
purposes, all without asking permission. Additionally, USGS 
waives copyright and related rights in the work worldwide 
through CC0 1.0 Universal Public Domain Dedication 
(https://creativecommons.org/publicdomain/zero/1.0/).

The following GNU Lesser General Public License (LGPL) libraries
are used in this USGS product:

    SPARSKIT version 2.0
      ilut, luson, and qsplit 
      (https://www-users.cse.umn.edu/~saad/software/SPARSKIT/)

    RCM - Reverse Cuthill McKee Ordering
      (https://people.math.sc.edu/Burkardt/f_src/rcm/rcm.html)

    BLAS - Basic Linear Algebra Subprograms Level 1
      (https://people.math.sc.edu/Burkardt/f_src/blas1_d/blas1_d.html)

    SPARSEKIT - Sparse Matrix Utility Package
      amux, dperm, dvperm, rperm, and cperm
      (https://people.sc.fsu.edu/~jburkardt/f77_src/sparsekit/sparsekit.html)

The following BSD-3 License libraries are used in this USGS product:

    Modern Fortran DAG Library
      Copyright (c) 2018, Jacob Williams
      All rights reserved.
      (https://github.com/jacobwilliams/daglib)

MODFLOW 6 compiler options: /O2 /heap-arrays:0 /fpe:0 /traceback /nologo /fpp
/c /module:win64\mod_mf6\ /object:win64\obj_mf6\

System command used to initiate simulation:
C:\Users\gross.DESKTOP-AIRQM2M\anaconda3\Scripts\mf6.exe

MODFLOW was compiled using uniform precision.

Real Variables
  KIND: 8
  TINY (smallest non-zero value):    2.225074-308
  HUGE (largest value):    1.797693+308
  PRECISION: 15
  SIZE IN BITS: 64

Integer Variables
  KIND: 4
  HUGE (largest value): 2147483647
  SIZE IN BITS: 32

Long Integer Variables
  KIND: 8
  HUGE (largest value): 9223372036854775807
  SIZE IN BITS: 64

Logical Variables
  KIND: 4
  SIZE IN BITS: 32
 
 NAMEFILE OPTIONS:
    FLOWS WILL BE SAVED TO BUDGET FILE SPECIFIED IN OUTPUT CONTROL
 END NAMEFILE OPTIONS:

 DIS -- STRUCTURED GRID DISCRETIZATION PACKAGE, VERSION 2 : 3/27/2014 - INPUT READ FROM MEMPATH: __INPUT__/GWT_P08_MF6/DIS                         


 DSP-- DISPERSION PACKAGE, VERSION 1, 1/24/2018 INPUT READ FROM MEMPATH: __INPUT__/GWT_P08_MF6/DSP                         


 Setting Discretization Options
 End Setting Discretization Options

 Setting Discretization Dimensions
    NLAY = 27
    NROW = 1
    NCOL = 50
 End Setting Discretization Dimensions

 Setting Discretization Griddata
    DELR set from input file
    DELC set from input file
    TOP set from input file
    BOTM set from input file
    IDOMAIN set from input file
 End Setting Discretization Griddata


 FMI -- FLOW MODEL INTERFACE,' VERSION 2, 8/17/2023
  FLOWS PROVIDED BY A GWF MODEL IN THIS SIMULATION

 ADV-- ADVECTION PACKAGE, VERSION 1, 8/25/2017 INPUT READ FROM UNIT 1016


 # File generated by Flopy version 3.9.1 on 02/27/2025 at 11:24:26.
 PROCESSING ADVECTION OPTIONS
    ADVECTION WEIGHTING SCHEME HAS BEEN SET TO: TVD
 END OF ADVECTION OPTIONS
 Setting DSP Options
    XT3D formulation [0=INACTIVE, 1=ACTIVE, 3=ACTIVE RHS] set to: 1
 End Setting DSP Options

 Setting DSP Griddata
    ALH set from input file
    ATH1 set from input file
    ATV set from input file
 End Setting DSP Griddata


 CNC   -- CNC PACKAGE, VERSION 8, 2/22/2014 INPUT READ FROM MEMPATH: __INPUT__/GWT_P08_MF6/CNC-1                       

 PROCESSING CNC BASE OPTIONS
    FLOWS WILL BE SAVED TO BUDGET FILE SPECIFIED IN OUTPUT CONTROL
 END OF CNC BASE OPTIONS

 PROCESSING CNC BASE DIMENSIONS
    MAXBOUND =       8
 END OF CNC BASE DIMENSIONS
    STRT set from input file

 MST -- MOBILE STORAGE AND TRANSFER PACKAGE, VERSION 1, 7/29/2020 INPUT READ FROM UNIT 1015


 # File generated by Flopy version 3.9.1 on 02/27/2025 at 11:24:26.
 PROCESSING MOBILE STORAGE AND TRANSFER OPTIONS
 END OF MOBILE STORAGE AND TRANSFER OPTIONS
 PROCESSING GRIDDATA

   MOBILE DOMAIN POROSITY =  0.3500000    
 END PROCESSING GRIDDATA

 SSM -- SOURCE-SINK MIXING PACKAGE, VERSION 1, 8/25/2017 INPUT READ FROM UNIT 1018


 # File generated by Flopy version 3.9.1 on 02/27/2025 at 11:24:26.
 PROCESSING SSM OPTIONS
 END OF SSM OPTIONS
 PROCESSING SOURCES
 AUX SOURCE DETECTED.
    USING AUX COLUMN 1 IN PACKAGE CHD-1
 END PROCESSING SOURCES
 OPTIONAL FILEINPUT BLOCK NOT FOUND.  CONTINUING.
      THE LAST TIME STEP WILL BE PRINTED
      THE LAST TIME STEP WILL BE PRINTED
 # File generated by Flopy version 3.9.1 on 02/27/2025 at 11:24:26.

 PROCESSING OC OPTIONS

    BUDGET INFORMATION WILL BE WRITTEN TO:
      UNIT NUMBER: 1029
      FILE NAME: gwt_p08_mf6.cbc

 OPENED gwt_p08_mf6.cbc
 FILE TYPE:DATA(BINARY)   UNIT 1029   STATUS:REPLACE             
 FORMAT:UNFORMATTED            ACCESS:STREAM              
 ACTION:READWRITE           

    CONCENTRATION INFORMATION WILL BE WRITTEN TO:
      UNIT NUMBER: 1030
      FILE NAME: gwt_p08_mf6.ucn

 OPENED gwt_p08_mf6.ucn
 FILE TYPE:DATA(BINARY)   UNIT 1030   STATUS:REPLACE             
 FORMAT:UNFORMATTED            ACCESS:STREAM              
 ACTION:READWRITE           

 END OF OC OPTIONS

start timestep kper="1" kstp="1" mode="normal"


 BEGIN READING OUTPUT CONTROL FOR STRESS PERIOD 1
      THE LAST TIME STEP WILL BE SAVED
      THE FOLLOWING STEPS WILL BE SAVED: 73 146 219 292 365 438 511 584 657 730 803 876 949 1022 1095 1168 1241 1314 1387 1460 
      THE LAST TIME STEP WILL BE SAVED
      THE LAST TIME STEP WILL BE SAVED
      THE LAST TIME STEP WILL BE PRINTED
      THE LAST TIME STEP WILL BE PRINTED

 END READING OUTPUT CONTROL FOR STRESS PERIOD 1
 WARNING: DRY CELL ENCOUNTERED AT (1,1,26); RESET AS INACTIVE WITH DRY CONCENTRATION= -0.10000E+31
 WARNING: DRY CELL ENCOUNTERED AT (1,1,27); RESET AS INACTIVE WITH DRY CONCENTRATION= -0.10000E+31
 WARNING: DRY CELL ENCOUNTERED AT (1,1,28); RESET AS INACTIVE WITH DRY CONCENTRATION= -0.10000E+31
 WARNING: DRY CELL ENCOUNTERED AT (1,1,29); RESET AS INACTIVE WITH DRY CONCENTRATION= -0.10000E+31
 WARNING: DRY CELL ENCOUNTERED AT (1,1,30); RESET AS INACTIVE WITH DRY CONCENTRATION= -0.10000E+31
 WARNING: DRY CELL ENCOUNTERED AT (1,1,31); RESET AS INACTIVE WITH DRY CONCENTRATION= -0.10000E+31
 WARNING: DRY CELL ENCOUNTERED AT (1,1,32); RESET AS INACTIVE WITH DRY CONCENTRATION= -0.10000E+31
 WARNING: DRY CELL ENCOUNTERED AT (1,1,33); RESET AS INACTIVE WITH DRY CONCENTRATION= -0.10000E+31
 WARNING: DRY CELL ENCOUNTERED AT (1,1,34); RESET AS INACTIVE WITH DRY CONCENTRATION= -0.10000E+31
 WARNING: DRY CELL ENCOUNTERED AT (1,1,35); RESET AS INACTIVE WITH DRY CONCENTRATION= -0.10000E+31
 WARNING: DRY CELL ENCOUNTERED AT (1,1,36); RESET AS INACTIVE WITH DRY CONCENTRATION= -0.10000E+31
 WARNING: DRY CELL ENCOUNTERED AT (1,1,37); RESET AS INACTIVE WITH DRY CONCENTRATION= -0.10000E+31
 WARNING: DRY CELL ENCOUNTERED AT (1,1,38); RESET AS INACTIVE WITH DRY CONCENTRATION= -0.10000E+31
 WARNING: DRY CELL ENCOUNTERED AT (1,1,39); RESET AS INACTIVE WITH DRY CONCENTRATION= -0.10000E+31
 WARNING: DRY CELL ENCOUNTERED AT (1,1,40); RESET AS INACTIVE WITH DRY CONCENTRATION= -0.10000E+31
 WARNING: DRY CELL ENCOUNTERED AT (1,1,41); RESET AS INACTIVE WITH DRY CONCENTRATION= -0.10000E+31
 WARNING: DRY CELL ENCOUNTERED AT (1,1,42); RESET AS INACTIVE WITH DRY CONCENTRATION= -0.10000E+31
 WARNING: DRY CELL ENCOUNTERED AT (1,1,43); RESET AS INACTIVE WITH DRY CONCENTRATION= -0.10000E+31
 WARNING: DRY CELL ENCOUNTERED AT (1,1,44); RESET AS INACTIVE WITH DRY CONCENTRATION= -0.10000E+31
 WARNING: DRY CELL ENCOUNTERED AT (1,1,45); RESET AS INACTIVE WITH DRY CONCENTRATION= -0.10000E+31
 WARNING: DRY CELL ENCOUNTERED AT (1,1,46); RESET AS INACTIVE WITH DRY CONCENTRATION= -0.10000E+31
 WARNING: DRY CELL ENCOUNTERED AT (1,1,47); RESET AS INACTIVE WITH DRY CONCENTRATION= -0.10000E+31
 WARNING: DRY CELL ENCOUNTERED AT (1,1,48); RESET AS INACTIVE WITH DRY CONCENTRATION= -0.10000E+31
 WARNING: DRY CELL ENCOUNTERED AT (1,1,49); RESET AS INACTIVE WITH DRY CONCENTRATION= -0.10000E+31
 WARNING: DRY CELL ENCOUNTERED AT (1,1,50); RESET AS INACTIVE WITH DRY CONCENTRATION= -0.10000E+31
 WARNING: DRY CELL ENCOUNTERED AT (2,1,30); RESET AS INACTIVE WITH DRY CONCENTRATION= -0.10000E+31
 WARNING: DRY CELL ENCOUNTERED AT (2,1,31); RESET AS INACTIVE WITH DRY CONCENTRATION= -0.10000E+31
 WARNING: DRY CELL ENCOUNTERED AT (2,1,32); RESET AS INACTIVE WITH DRY CONCENTRATION= -0.10000E+31
 WARNING: DRY CELL ENCOUNTERED AT (2,1,33); RESET AS INACTIVE WITH DRY CONCENTRATION= -0.10000E+31
 WARNING: DRY CELL ENCOUNTERED AT (2,1,34); RESET AS INACTIVE WITH DRY CONCENTRATION= -0.10000E+31
 WARNING: DRY CELL ENCOUNTERED AT (2,1,35); RESET AS INACTIVE WITH DRY CONCENTRATION= -0.10000E+31
 WARNING: DRY CELL ENCOUNTERED AT (2,1,36); RESET AS INACTIVE WITH DRY CONCENTRATION= -0.10000E+31
 WARNING: DRY CELL ENCOUNTERED AT (2,1,37); RESET AS INACTIVE WITH DRY CONCENTRATION= -0.10000E+31
 WARNING: DRY CELL ENCOUNTERED AT (2,1,38); RESET AS INACTIVE WITH DRY CONCENTRATION= -0.10000E+31
 WARNING: DRY CELL ENCOUNTERED AT (2,1,39); RESET AS INACTIVE WITH DRY CONCENTRATION= -0.10000E+31
 WARNING: DRY CELL ENCOUNTERED AT (2,1,40); RESET AS INACTIVE WITH DRY CONCENTRATION= -0.10000E+31
 WARNING: DRY CELL ENCOUNTERED AT (2,1,41); RESET AS INACTIVE WITH DRY CONCENTRATION= -0.10000E+31
 WARNING: DRY CELL ENCOUNTERED AT (2,1,42); RESET AS INACTIVE WITH DRY CONCENTRATION= -0.10000E+31
 WARNING: DRY CELL ENCOUNTERED AT (2,1,43); RESET AS INACTIVE WITH DRY CONCENTRATION= -0.10000E+31
 WARNING: DRY CELL ENCOUNTERED AT (2,1,44); RESET AS INACTIVE WITH DRY CONCENTRATION= -0.10000E+31
 WARNING: DRY CELL ENCOUNTERED AT (2,1,45); RESET AS INACTIVE WITH DRY CONCENTRATION= -0.10000E+31
 WARNING: DRY CELL ENCOUNTERED AT (2,1,46); RESET AS INACTIVE WITH DRY CONCENTRATION= -0.10000E+31
 WARNING: DRY CELL ENCOUNTERED AT (2,1,47); RESET AS INACTIVE WITH DRY CONCENTRATION= -0.10000E+31
 WARNING: DRY CELL ENCOUNTERED AT (2,1,48); RESET AS INACTIVE WITH DRY CONCENTRATION= -0.10000E+31
 WARNING: DRY CELL ENCOUNTERED AT (2,1,49); RESET AS INACTIVE WITH DRY CONCENTRATION= -0.10000E+31
 WARNING: DRY CELL ENCOUNTERED AT (2,1,50); RESET AS INACTIVE WITH DRY CONCENTRATION= -0.10000E+31
 WARNING: DRY CELL ENCOUNTERED AT (3,1,33); RESET AS INACTIVE WITH DRY CONCENTRATION= -0.10000E+31
 WARNING: DRY CELL ENCOUNTERED AT (3,1,34); RESET AS INACTIVE WITH DRY CONCENTRATION= -0.10000E+31
 WARNING: DRY CELL ENCOUNTERED AT (3,1,35); RESET AS INACTIVE WITH DRY CONCENTRATION= -0.10000E+31
 WARNING: DRY CELL ENCOUNTERED AT (3,1,36); RESET AS INACTIVE WITH DRY CONCENTRATION= -0.10000E+31
 WARNING: DRY CELL ENCOUNTERED AT (3,1,37); RESET AS INACTIVE WITH DRY CONCENTRATION= -0.10000E+31
 WARNING: DRY CELL ENCOUNTERED AT (3,1,38); RESET AS INACTIVE WITH DRY CONCENTRATION= -0.10000E+31
 WARNING: DRY CELL ENCOUNTERED AT (3,1,39); RESET AS INACTIVE WITH DRY CONCENTRATION= -0.10000E+31
 WARNING: DRY CELL ENCOUNTERED AT (3,1,40); RESET AS INACTIVE WITH DRY CONCENTRATION= -0.10000E+31
 WARNING: DRY CELL ENCOUNTERED AT (3,1,41); RESET AS INACTIVE WITH DRY CONCENTRATION= -0.10000E+31
 WARNING: DRY CELL ENCOUNTERED AT (3,1,42); RESET AS INACTIVE WITH DRY CONCENTRATION= -0.10000E+31
 WARNING: DRY CELL ENCOUNTERED AT (3,1,43); RESET AS INACTIVE WITH DRY CONCENTRATION= -0.10000E+31
 WARNING: DRY CELL ENCOUNTERED AT (3,1,44); RESET AS INACTIVE WITH DRY CONCENTRATION= -0.10000E+31
 WARNING: DRY CELL ENCOUNTERED AT (3,1,45); RESET AS INACTIVE WITH DRY CONCENTRATION= -0.10000E+31
 WARNING: DRY CELL ENCOUNTERED AT (3,1,46); RESET AS INACTIVE WITH DRY CONCENTRATION= -0.10000E+31
 WARNING: DRY CELL ENCOUNTERED AT (3,1,47); RESET AS INACTIVE WITH DRY CONCENTRATION= -0.10000E+31
 WARNING: DRY CELL ENCOUNTERED AT (3,1,48); RESET AS INACTIVE WITH DRY CONCENTRATION= -0.10000E+31
 WARNING: DRY CELL ENCOUNTERED AT (3,1,49); RESET AS INACTIVE WITH DRY CONCENTRATION= -0.10000E+31
 WARNING: DRY CELL ENCOUNTERED AT (3,1,50); RESET AS INACTIVE WITH DRY CONCENTRATION= -0.10000E+31
 WARNING: DRY CELL ENCOUNTERED AT (4,1,36); RESET AS INACTIVE WITH DRY CONCENTRATION= -0.10000E+31
 WARNING: DRY CELL ENCOUNTERED AT (4,1,37); RESET AS INACTIVE WITH DRY CONCENTRATION= -0.10000E+31
 WARNING: DRY CELL ENCOUNTERED AT (4,1,38); RESET AS INACTIVE WITH DRY CONCENTRATION= -0.10000E+31
 WARNING: DRY CELL ENCOUNTERED AT (4,1,39); RESET AS INACTIVE WITH DRY CONCENTRATION= -0.10000E+31
 WARNING: DRY CELL ENCOUNTERED AT (4,1,40); RESET AS INACTIVE WITH DRY CONCENTRATION= -0.10000E+31
 WARNING: DRY CELL ENCOUNTERED AT (4,1,41); RESET AS INACTIVE WITH DRY CONCENTRATION= -0.10000E+31
 WARNING: DRY CELL ENCOUNTERED AT (4,1,42); RESET AS INACTIVE WITH DRY CONCENTRATION= -0.10000E+31
 WARNING: DRY CELL ENCOUNTERED AT (4,1,43); RESET AS INACTIVE WITH DRY CONCENTRATION= -0.10000E+31
 WARNING: DRY CELL ENCOUNTERED AT (4,1,44); RESET AS INACTIVE WITH DRY CONCENTRATION= -0.10000E+31
 WARNING: DRY CELL ENCOUNTERED AT (4,1,45); RESET AS INACTIVE WITH DRY CONCENTRATION= -0.10000E+31
 WARNING: DRY CELL ENCOUNTERED AT (4,1,46); RESET AS INACTIVE WITH DRY CONCENTRATION= -0.10000E+31
 WARNING: DRY CELL ENCOUNTERED AT (4,1,47); RESET AS INACTIVE WITH DRY CONCENTRATION= -0.10000E+31
 WARNING: DRY CELL ENCOUNTERED AT (4,1,48); RESET AS INACTIVE WITH DRY CONCENTRATION= -0.10000E+31
 WARNING: DRY CELL ENCOUNTERED AT (4,1,49); RESET AS INACTIVE WITH DRY CONCENTRATION= -0.10000E+31
 WARNING: DRY CELL ENCOUNTERED AT (4,1,50); RESET AS INACTIVE WITH DRY CONCENTRATION= -0.10000E+31
 WARNING: DRY CELL ENCOUNTERED AT (5,1,43); RESET AS INACTIVE WITH DRY CONCENTRATION= -0.10000E+31
 WARNING: DRY CELL ENCOUNTERED AT (5,1,44); RESET AS INACTIVE WITH DRY CONCENTRATION= -0.10000E+31
 WARNING: DRY CELL ENCOUNTERED AT (5,1,45); RESET AS INACTIVE WITH DRY CONCENTRATION= -0.10000E+31
 WARNING: DRY CELL ENCOUNTERED AT (5,1,46); RESET AS INACTIVE WITH DRY CONCENTRATION= -0.10000E+31
 WARNING: DRY CELL ENCOUNTERED AT (5,1,47); RESET AS INACTIVE WITH DRY CONCENTRATION= -0.10000E+31
 WARNING: DRY CELL ENCOUNTERED AT (5,1,48); RESET AS INACTIVE WITH DRY CONCENTRATION= -0.10000E+31
 WARNING: DRY CELL ENCOUNTERED AT (5,1,49); RESET AS INACTIVE WITH DRY CONCENTRATION= -0.10000E+31
 WARNING: DRY CELL ENCOUNTERED AT (5,1,50); RESET AS INACTIVE WITH DRY CONCENTRATION= -0.10000E+31

 XT3D is active.



end timestep


start timestep kper="1" kstp="2" mode="normal"


end timestep


start timestep kper="1" kstp="3" mode="normal"


end timestep


start timestep kper="1" kstp="4" mode="normal"


end timestep


start timestep kper="1" kstp="5" mode="normal"


end timestep


start timestep kper="1" kstp="6" mode="normal"


end timestep


start timestep kper="1" kstp="7" mode="normal"


end timestep


start timestep kper="1" kstp="8" mode="normal"


end timestep


start timestep kper="1" kstp="9" mode="normal"


end timestep


start timestep kper="1" kstp="10" mode="normal"


end timestep


start timestep kper="1" kstp="11" mode="normal"


end timestep


start timestep kper="1" kstp="12" mode="normal"


end timestep


start timestep kper="1" kstp="13" mode="normal"


end timestep


start timestep kper="1" kstp="14" mode="normal"


end timestep


start timestep kper="1" kstp="15" mode="normal"


end timestep


start timestep kper="1" kstp="16" mode="normal"


end timestep


start timestep kper="1" kstp="17" mode="normal"


end timestep


start timestep kper="1" kstp="18" mode="normal"


end timestep


start timestep kper="1" kstp="19" mode="normal"


end timestep


start timestep kper="1" kstp="20" mode="normal"


end timestep


start timestep kper="1" kstp="21" mode="normal"


end timestep


start timestep kper="1" kstp="22" mode="normal"


end timestep


start timestep kper="1" kstp="23" mode="normal"


end timestep


start timestep kper="1" kstp="24" mode="normal"


end timestep


start timestep kper="1" kstp="25" mode="normal"


end timestep


start timestep kper="1" kstp="26" mode="normal"


end timestep


start timestep kper="1" kstp="27" mode="normal"


end timestep


start timestep kper="1" kstp="28" mode="normal"


end timestep


start timestep kper="1" kstp="29" mode="normal"


end timestep


start timestep kper="1" kstp="30" mode="normal"


end timestep


start timestep kper="1" kstp="31" mode="normal"


end timestep


start timestep kper="1" kstp="32" mode="normal"


end timestep


start timestep kper="1" kstp="33" mode="normal"


end timestep


start timestep kper="1" kstp="34" mode="normal"


end timestep


start timestep kper="1" kstp="35" mode="normal"


end timestep


start timestep kper="1" kstp="36" mode="normal"


end timestep


start timestep kper="1" kstp="37" mode="normal"


end timestep


start timestep kper="1" kstp="38" mode="normal"


end timestep


start timestep kper="1" kstp="39" mode="normal"


end timestep


start timestep kper="1" kstp="40" mode="normal"


end timestep


start timestep kper="1" kstp="41" mode="normal"


end timestep


start timestep kper="1" kstp="42" mode="normal"


end timestep


start timestep kper="1" kstp="43" mode="normal"


end timestep


start timestep kper="1" kstp="44" mode="normal"


end timestep


start timestep kper="1" kstp="45" mode="normal"


end timestep


start timestep kper="1" kstp="46" mode="normal"


end timestep


start timestep kper="1" kstp="47" mode="normal"


end timestep


start timestep kper="1" kstp="48" mode="normal"


end timestep


start timestep kper="1" kstp="49" mode="normal"


end timestep


start timestep kper="1" kstp="50" mode="normal"


end timestep


start timestep kper="1" kstp="51" mode="normal"


end timestep


start timestep kper="1" kstp="52" mode="normal"


end timestep


start timestep kper="1" kstp="53" mode="normal"


end timestep


start timestep kper="1" kstp="54" mode="normal"


end timestep


start timestep kper="1" kstp="55" mode="normal"


end timestep


start timestep kper="1" kstp="56" mode="normal"


end timestep


start timestep kper="1" kstp="57" mode="normal"


end timestep


start timestep kper="1" kstp="58" mode="normal"


end timestep


start timestep kper="1" kstp="59" mode="normal"


end timestep


start timestep kper="1" kstp="60" mode="normal"


end timestep


start timestep kper="1" kstp="61" mode="normal"


end timestep


start timestep kper="1" kstp="62" mode="normal"


end timestep


start timestep kper="1" kstp="63" mode="normal"


end timestep


start timestep kper="1" kstp="64" mode="normal"


end timestep


start timestep kper="1" kstp="65" mode="normal"


end timestep


start timestep kper="1" kstp="66" mode="normal"


end timestep


start timestep kper="1" kstp="67" mode="normal"


end timestep


start timestep kper="1" kstp="68" mode="normal"


end timestep


start timestep kper="1" kstp="69" mode="normal"


end timestep


start timestep kper="1" kstp="70" mode="normal"


end timestep


start timestep kper="1" kstp="71" mode="normal"


end timestep


start timestep kper="1" kstp="72" mode="normal"


end timestep


start timestep kper="1" kstp="73" mode="normal"


 CONCENTRATION WILL BE SAVED ON UNIT 1030 AT END OF TIME STEP   73, STRESS PERIOD    1

end timestep


start timestep kper="1" kstp="74" mode="normal"


end timestep


start timestep kper="1" kstp="75" mode="normal"


end timestep


start timestep kper="1" kstp="76" mode="normal"


end timestep


start timestep kper="1" kstp="77" mode="normal"


end timestep


start timestep kper="1" kstp="78" mode="normal"


end timestep


start timestep kper="1" kstp="79" mode="normal"


end timestep


start timestep kper="1" kstp="80" mode="normal"


end timestep


start timestep kper="1" kstp="81" mode="normal"


end timestep


start timestep kper="1" kstp="82" mode="normal"


end timestep


start timestep kper="1" kstp="83" mode="normal"


end timestep


start timestep kper="1" kstp="84" mode="normal"


end timestep


start timestep kper="1" kstp="85" mode="normal"


end timestep


start timestep kper="1" kstp="86" mode="normal"


end timestep


start timestep kper="1" kstp="87" mode="normal"


end timestep


start timestep kper="1" kstp="88" mode="normal"


end timestep


start timestep kper="1" kstp="89" mode="normal"


end timestep


start timestep kper="1" kstp="90" mode="normal"


end timestep


start timestep kper="1" kstp="91" mode="normal"


end timestep


start timestep kper="1" kstp="92" mode="normal"


end timestep


start timestep kper="1" kstp="93" mode="normal"


end timestep


start timestep kper="1" kstp="94" mode="normal"


end timestep


start timestep kper="1" kstp="95" mode="normal"


end timestep


start timestep kper="1" kstp="96" mode="normal"


end timestep


start timestep kper="1" kstp="97" mode="normal"


end timestep


start timestep kper="1" kstp="98" mode="normal"


end timestep


start timestep kper="1" kstp="99" mode="normal"


end timestep


start timestep kper="1" kstp="100" mode="normal"


end timestep


start timestep kper="1" kstp="101" mode="normal"


end timestep


start timestep kper="1" kstp="102" mode="normal"


end timestep


start timestep kper="1" kstp="103" mode="normal"


end timestep


start timestep kper="1" kstp="104" mode="normal"


end timestep


start timestep kper="1" kstp="105" mode="normal"


end timestep


start timestep kper="1" kstp="106" mode="normal"


end timestep


start timestep kper="1" kstp="107" mode="normal"


end timestep


start timestep kper="1" kstp="108" mode="normal"


end timestep


start timestep kper="1" kstp="109" mode="normal"


end timestep


start timestep kper="1" kstp="110" mode="normal"


end timestep


start timestep kper="1" kstp="111" mode="normal"


end timestep


start timestep kper="1" kstp="112" mode="normal"


end timestep


start timestep kper="1" kstp="113" mode="normal"


end timestep


start timestep kper="1" kstp="114" mode="normal"


end timestep


start timestep kper="1" kstp="115" mode="normal"


end timestep


start timestep kper="1" kstp="116" mode="normal"


end timestep


start timestep kper="1" kstp="117" mode="normal"


end timestep


start timestep kper="1" kstp="118" mode="normal"


end timestep


start timestep kper="1" kstp="119" mode="normal"


end timestep


start timestep kper="1" kstp="120" mode="normal"


end timestep


start timestep kper="1" kstp="121" mode="normal"


end timestep


start timestep kper="1" kstp="122" mode="normal"


end timestep


start timestep kper="1" kstp="123" mode="normal"


end timestep


start timestep kper="1" kstp="124" mode="normal"


end timestep


start timestep kper="1" kstp="125" mode="normal"


end timestep


start timestep kper="1" kstp="126" mode="normal"


end timestep


start timestep kper="1" kstp="127" mode="normal"


end timestep


start timestep kper="1" kstp="128" mode="normal"


end timestep


start timestep kper="1" kstp="129" mode="normal"


end timestep


start timestep kper="1" kstp="130" mode="normal"


end timestep


start timestep kper="1" kstp="131" mode="normal"


end timestep


start timestep kper="1" kstp="132" mode="normal"


end timestep


start timestep kper="1" kstp="133" mode="normal"


end timestep


start timestep kper="1" kstp="134" mode="normal"


end timestep


start timestep kper="1" kstp="135" mode="normal"


end timestep


start timestep kper="1" kstp="136" mode="normal"


end timestep


start timestep kper="1" kstp="137" mode="normal"


end timestep


start timestep kper="1" kstp="138" mode="normal"


end timestep


start timestep kper="1" kstp="139" mode="normal"


end timestep


start timestep kper="1" kstp="140" mode="normal"


end timestep


start timestep kper="1" kstp="141" mode="normal"


end timestep


start timestep kper="1" kstp="142" mode="normal"


end timestep


start timestep kper="1" kstp="143" mode="normal"


end timestep


start timestep kper="1" kstp="144" mode="normal"


end timestep


start timestep kper="1" kstp="145" mode="normal"


end timestep


start timestep kper="1" kstp="146" mode="normal"


 CONCENTRATION WILL BE SAVED ON UNIT 1030 AT END OF TIME STEP  146, STRESS PERIOD    1

end timestep


start timestep kper="1" kstp="147" mode="normal"


end timestep


start timestep kper="1" kstp="148" mode="normal"


end timestep


start timestep kper="1" kstp="149" mode="normal"


end timestep


start timestep kper="1" kstp="150" mode="normal"


end timestep


start timestep kper="1" kstp="151" mode="normal"


end timestep


start timestep kper="1" kstp="152" mode="normal"


end timestep


start timestep kper="1" kstp="153" mode="normal"


end timestep


start timestep kper="1" kstp="154" mode="normal"


end timestep


start timestep kper="1" kstp="155" mode="normal"


end timestep


start timestep kper="1" kstp="156" mode="normal"


end timestep


start timestep kper="1" kstp="157" mode="normal"


end timestep


start timestep kper="1" kstp="158" mode="normal"


end timestep


start timestep kper="1" kstp="159" mode="normal"


end timestep


start timestep kper="1" kstp="160" mode="normal"


end timestep


start timestep kper="1" kstp="161" mode="normal"


end timestep


start timestep kper="1" kstp="162" mode="normal"


end timestep


start timestep kper="1" kstp="163" mode="normal"


end timestep


start timestep kper="1" kstp="164" mode="normal"


end timestep


start timestep kper="1" kstp="165" mode="normal"


end timestep


start timestep kper="1" kstp="166" mode="normal"


end timestep


start timestep kper="1" kstp="167" mode="normal"


end timestep


start timestep kper="1" kstp="168" mode="normal"


end timestep


start timestep kper="1" kstp="169" mode="normal"


end timestep


start timestep kper="1" kstp="170" mode="normal"


end timestep


start timestep kper="1" kstp="171" mode="normal"


end timestep


start timestep kper="1" kstp="172" mode="normal"


end timestep


start timestep kper="1" kstp="173" mode="normal"


end timestep


start timestep kper="1" kstp="174" mode="normal"


end timestep


start timestep kper="1" kstp="175" mode="normal"


end timestep


start timestep kper="1" kstp="176" mode="normal"


end timestep


start timestep kper="1" kstp="177" mode="normal"


end timestep


start timestep kper="1" kstp="178" mode="normal"


end timestep


start timestep kper="1" kstp="179" mode="normal"


end timestep


start timestep kper="1" kstp="180" mode="normal"


end timestep


start timestep kper="1" kstp="181" mode="normal"


end timestep


start timestep kper="1" kstp="182" mode="normal"


end timestep


start timestep kper="1" kstp="183" mode="normal"


end timestep


start timestep kper="1" kstp="184" mode="normal"


end timestep


start timestep kper="1" kstp="185" mode="normal"


end timestep


start timestep kper="1" kstp="186" mode="normal"


end timestep


start timestep kper="1" kstp="187" mode="normal"


end timestep


start timestep kper="1" kstp="188" mode="normal"


end timestep


start timestep kper="1" kstp="189" mode="normal"


end timestep


start timestep kper="1" kstp="190" mode="normal"


end timestep


start timestep kper="1" kstp="191" mode="normal"


end timestep


start timestep kper="1" kstp="192" mode="normal"


end timestep


start timestep kper="1" kstp="193" mode="normal"


end timestep


start timestep kper="1" kstp="194" mode="normal"


end timestep


start timestep kper="1" kstp="195" mode="normal"


end timestep


start timestep kper="1" kstp="196" mode="normal"


end timestep


start timestep kper="1" kstp="197" mode="normal"


end timestep


start timestep kper="1" kstp="198" mode="normal"


end timestep


start timestep kper="1" kstp="199" mode="normal"


end timestep


start timestep kper="1" kstp="200" mode="normal"


end timestep


start timestep kper="1" kstp="201" mode="normal"


end timestep


start timestep kper="1" kstp="202" mode="normal"


end timestep


start timestep kper="1" kstp="203" mode="normal"


end timestep


start timestep kper="1" kstp="204" mode="normal"


end timestep


start timestep kper="1" kstp="205" mode="normal"


end timestep


start timestep kper="1" kstp="206" mode="normal"


end timestep


start timestep kper="1" kstp="207" mode="normal"


end timestep


start timestep kper="1" kstp="208" mode="normal"


end timestep


start timestep kper="1" kstp="209" mode="normal"


end timestep


start timestep kper="1" kstp="210" mode="normal"


end timestep


start timestep kper="1" kstp="211" mode="normal"


end timestep


start timestep kper="1" kstp="212" mode="normal"


end timestep


start timestep kper="1" kstp="213" mode="normal"


end timestep


start timestep kper="1" kstp="214" mode="normal"


end timestep


start timestep kper="1" kstp="215" mode="normal"


end timestep


start timestep kper="1" kstp="216" mode="normal"


end timestep


start timestep kper="1" kstp="217" mode="normal"


end timestep


start timestep kper="1" kstp="218" mode="normal"


end timestep


start timestep kper="1" kstp="219" mode="normal"


 CONCENTRATION WILL BE SAVED ON UNIT 1030 AT END OF TIME STEP  219, STRESS PERIOD    1

end timestep


start timestep kper="1" kstp="220" mode="normal"


end timestep


start timestep kper="1" kstp="221" mode="normal"


end timestep


start timestep kper="1" kstp="222" mode="normal"


end timestep


start timestep kper="1" kstp="223" mode="normal"


end timestep


start timestep kper="1" kstp="224" mode="normal"


end timestep


start timestep kper="1" kstp="225" mode="normal"


end timestep


start timestep kper="1" kstp="226" mode="normal"


end timestep


start timestep kper="1" kstp="227" mode="normal"


end timestep


start timestep kper="1" kstp="228" mode="normal"


end timestep


start timestep kper="1" kstp="229" mode="normal"


end timestep


start timestep kper="1" kstp="230" mode="normal"


end timestep


start timestep kper="1" kstp="231" mode="normal"


end timestep


start timestep kper="1" kstp="232" mode="normal"


end timestep


start timestep kper="1" kstp="233" mode="normal"


end timestep


start timestep kper="1" kstp="234" mode="normal"


end timestep


start timestep kper="1" kstp="235" mode="normal"


end timestep


start timestep kper="1" kstp="236" mode="normal"


end timestep


start timestep kper="1" kstp="237" mode="normal"


end timestep


start timestep kper="1" kstp="238" mode="normal"


end timestep


start timestep kper="1" kstp="239" mode="normal"


end timestep


start timestep kper="1" kstp="240" mode="normal"


end timestep


start timestep kper="1" kstp="241" mode="normal"


end timestep


start timestep kper="1" kstp="242" mode="normal"


end timestep


start timestep kper="1" kstp="243" mode="normal"


end timestep


start timestep kper="1" kstp="244" mode="normal"


end timestep


start timestep kper="1" kstp="245" mode="normal"


end timestep


start timestep kper="1" kstp="246" mode="normal"


end timestep


start timestep kper="1" kstp="247" mode="normal"


end timestep


start timestep kper="1" kstp="248" mode="normal"


end timestep


start timestep kper="1" kstp="249" mode="normal"


end timestep


start timestep kper="1" kstp="250" mode="normal"


end timestep


start timestep kper="1" kstp="251" mode="normal"


end timestep


start timestep kper="1" kstp="252" mode="normal"


end timestep


start timestep kper="1" kstp="253" mode="normal"


end timestep


start timestep kper="1" kstp="254" mode="normal"


end timestep


start timestep kper="1" kstp="255" mode="normal"


end timestep


start timestep kper="1" kstp="256" mode="normal"


end timestep


start timestep kper="1" kstp="257" mode="normal"


end timestep


start timestep kper="1" kstp="258" mode="normal"


end timestep


start timestep kper="1" kstp="259" mode="normal"


end timestep


start timestep kper="1" kstp="260" mode="normal"


end timestep


start timestep kper="1" kstp="261" mode="normal"


end timestep


start timestep kper="1" kstp="262" mode="normal"


end timestep


start timestep kper="1" kstp="263" mode="normal"


end timestep


start timestep kper="1" kstp="264" mode="normal"


end timestep


start timestep kper="1" kstp="265" mode="normal"


end timestep


start timestep kper="1" kstp="266" mode="normal"


end timestep


start timestep kper="1" kstp="267" mode="normal"


end timestep


start timestep kper="1" kstp="268" mode="normal"


end timestep


start timestep kper="1" kstp="269" mode="normal"


end timestep


start timestep kper="1" kstp="270" mode="normal"


end timestep


start timestep kper="1" kstp="271" mode="normal"


end timestep


start timestep kper="1" kstp="272" mode="normal"


end timestep


start timestep kper="1" kstp="273" mode="normal"


end timestep


start timestep kper="1" kstp="274" mode="normal"


end timestep


start timestep kper="1" kstp="275" mode="normal"


end timestep


start timestep kper="1" kstp="276" mode="normal"


end timestep


start timestep kper="1" kstp="277" mode="normal"


end timestep


start timestep kper="1" kstp="278" mode="normal"


end timestep


start timestep kper="1" kstp="279" mode="normal"


end timestep


start timestep kper="1" kstp="280" mode="normal"


end timestep


start timestep kper="1" kstp="281" mode="normal"


end timestep


start timestep kper="1" kstp="282" mode="normal"


end timestep


start timestep kper="1" kstp="283" mode="normal"


end timestep


start timestep kper="1" kstp="284" mode="normal"


end timestep


start timestep kper="1" kstp="285" mode="normal"


end timestep


start timestep kper="1" kstp="286" mode="normal"


end timestep


start timestep kper="1" kstp="287" mode="normal"


end timestep


start timestep kper="1" kstp="288" mode="normal"


end timestep


start timestep kper="1" kstp="289" mode="normal"


end timestep


start timestep kper="1" kstp="290" mode="normal"


end timestep


start timestep kper="1" kstp="291" mode="normal"


end timestep


start timestep kper="1" kstp="292" mode="normal"


 CONCENTRATION WILL BE SAVED ON UNIT 1030 AT END OF TIME STEP  292, STRESS PERIOD    1

end timestep


start timestep kper="1" kstp="293" mode="normal"


end timestep


start timestep kper="1" kstp="294" mode="normal"


end timestep


start timestep kper="1" kstp="295" mode="normal"


end timestep


start timestep kper="1" kstp="296" mode="normal"


end timestep


start timestep kper="1" kstp="297" mode="normal"


end timestep


start timestep kper="1" kstp="298" mode="normal"


end timestep


start timestep kper="1" kstp="299" mode="normal"


end timestep


start timestep kper="1" kstp="300" mode="normal"


end timestep


start timestep kper="1" kstp="301" mode="normal"


end timestep


start timestep kper="1" kstp="302" mode="normal"


end timestep


start timestep kper="1" kstp="303" mode="normal"


end timestep


start timestep kper="1" kstp="304" mode="normal"


end timestep


start timestep kper="1" kstp="305" mode="normal"


end timestep


start timestep kper="1" kstp="306" mode="normal"


end timestep


start timestep kper="1" kstp="307" mode="normal"


end timestep


start timestep kper="1" kstp="308" mode="normal"


end timestep


start timestep kper="1" kstp="309" mode="normal"


end timestep


start timestep kper="1" kstp="310" mode="normal"


end timestep


start timestep kper="1" kstp="311" mode="normal"


end timestep


start timestep kper="1" kstp="312" mode="normal"


end timestep


start timestep kper="1" kstp="313" mode="normal"


end timestep


start timestep kper="1" kstp="314" mode="normal"


end timestep


start timestep kper="1" kstp="315" mode="normal"


end timestep


start timestep kper="1" kstp="316" mode="normal"


end timestep


start timestep kper="1" kstp="317" mode="normal"


end timestep


start timestep kper="1" kstp="318" mode="normal"


end timestep


start timestep kper="1" kstp="319" mode="normal"


end timestep


start timestep kper="1" kstp="320" mode="normal"


end timestep


start timestep kper="1" kstp="321" mode="normal"


end timestep


start timestep kper="1" kstp="322" mode="normal"


end timestep


start timestep kper="1" kstp="323" mode="normal"


end timestep


start timestep kper="1" kstp="324" mode="normal"


end timestep


start timestep kper="1" kstp="325" mode="normal"


end timestep


start timestep kper="1" kstp="326" mode="normal"


end timestep


start timestep kper="1" kstp="327" mode="normal"


end timestep


start timestep kper="1" kstp="328" mode="normal"


end timestep


start timestep kper="1" kstp="329" mode="normal"


end timestep


start timestep kper="1" kstp="330" mode="normal"


end timestep


start timestep kper="1" kstp="331" mode="normal"


end timestep


start timestep kper="1" kstp="332" mode="normal"


end timestep


start timestep kper="1" kstp="333" mode="normal"


end timestep


start timestep kper="1" kstp="334" mode="normal"


end timestep


start timestep kper="1" kstp="335" mode="normal"


end timestep


start timestep kper="1" kstp="336" mode="normal"


end timestep


start timestep kper="1" kstp="337" mode="normal"


end timestep


start timestep kper="1" kstp="338" mode="normal"


end timestep


start timestep kper="1" kstp="339" mode="normal"


end timestep


start timestep kper="1" kstp="340" mode="normal"


end timestep


start timestep kper="1" kstp="341" mode="normal"


end timestep


start timestep kper="1" kstp="342" mode="normal"


end timestep


start timestep kper="1" kstp="343" mode="normal"


end timestep


start timestep kper="1" kstp="344" mode="normal"


end timestep


start timestep kper="1" kstp="345" mode="normal"


end timestep


start timestep kper="1" kstp="346" mode="normal"


end timestep


start timestep kper="1" kstp="347" mode="normal"


end timestep


start timestep kper="1" kstp="348" mode="normal"


end timestep


start timestep kper="1" kstp="349" mode="normal"


end timestep


start timestep kper="1" kstp="350" mode="normal"


end timestep


start timestep kper="1" kstp="351" mode="normal"


end timestep


start timestep kper="1" kstp="352" mode="normal"


end timestep


start timestep kper="1" kstp="353" mode="normal"


end timestep


start timestep kper="1" kstp="354" mode="normal"


end timestep


start timestep kper="1" kstp="355" mode="normal"


end timestep


start timestep kper="1" kstp="356" mode="normal"


end timestep


start timestep kper="1" kstp="357" mode="normal"


end timestep


start timestep kper="1" kstp="358" mode="normal"


end timestep


start timestep kper="1" kstp="359" mode="normal"


end timestep


start timestep kper="1" kstp="360" mode="normal"


end timestep


start timestep kper="1" kstp="361" mode="normal"


end timestep


start timestep kper="1" kstp="362" mode="normal"


end timestep


start timestep kper="1" kstp="363" mode="normal"


end timestep


start timestep kper="1" kstp="364" mode="normal"


end timestep


start timestep kper="1" kstp="365" mode="normal"

 UBDSV1 SAVING  STORAGE-AQUEOUS ON UNIT   1029 AT TIME STEP    365, STRESS PERIOD      1
 UBDSV1 SAVING     FLOW-JA-FACE ON UNIT   1029 AT TIME STEP    365, STRESS PERIOD      1
 UBDSV06 SAVING  SOURCE-SINK MIX IN MODEL GWT_P08_MF6      PACKAGE GWT_P08_MF6     CONNECTED TO MODEL GWT_P08_MF6      PACKAGE SSM              ON UNIT   1029 AT TIME STEP    365, STRESS PERIOD      1
 UBDSV06 SAVING              CNC IN MODEL GWT_P08_MF6      PACKAGE GWT_P08_MF6     CONNECTED TO MODEL GWT_P08_MF6      PACKAGE CNC-1            ON UNIT   1029 AT TIME STEP    365, STRESS PERIOD      1
1
  CONCENTRATION IN LAYER   1 AT END OF TIME STEP 365 IN STRESS PERIOD    1
  ---------------------------------------------------------------------------

                1               2               3               4               5               6               7               8               9              10
               11              12              13              14              15              16              17              18              19              20
               21              22              23              24              25              26              27              28              29              30
               31              32              33              34              35              36              37              38              39              40
               41              42              43              44              45              46              47              48              49              50
 ................................................................................................................................................................................................................................................................................................................................................................................................................................................................................................................................................................................................................................................................................................................................................................................................................................
   1    -6.763482E-15    3.552289E-13    3.952398E-11    5.807313E-10    2.179025E-08    1.154188E-06    5.399405E-04    2.061399E-02     1.00000         1.00000    
          1.00000         1.00000         1.00000         1.00000         1.00000         1.00000        4.644257E-02    3.931384E-05   -6.021448E-05   -5.917585E-06
        -2.232748E-07   -1.900605E-09    7.441743E-10    7.222855E-11   -1.671191E-12   -1.000000E+30   -1.000000E+30   -1.000000E+30   -1.000000E+30   -1.000000E+30
        -1.000000E+30   -1.000000E+30   -1.000000E+30   -1.000000E+30   -1.000000E+30   -1.000000E+30   -1.000000E+30   -1.000000E+30   -1.000000E+30   -1.000000E+30
        -1.000000E+30   -1.000000E+30   -1.000000E+30   -1.000000E+30   -1.000000E+30   -1.000000E+30   -1.000000E+30   -1.000000E+30   -1.000000E+30   -1.000000E+30
1
  CONCENTRATION IN LAYER   2 AT END OF TIME STEP 365 IN STRESS PERIOD    1
  ---------------------------------------------------------------------------

                1               2               3               4               5               6               7               8               9              10
               11              12              13              14              15              16              17              18              19              20
               21              22              23              24              25              26              27              28              29              30
               31              32              33              34              35              36              37              38              39              40
               41              42              43              44              45              46              47              48              49              50
 ................................................................................................................................................................................................................................................................................................................................................................................................................................................................................................................................................................................................................................................................................................................................................................................................................................
   1    -7.369824E-15    2.046341E-13    3.982939E-11    1.171131E-09   -2.627037E-08   -6.915074E-06    2.236036E-04    1.580956E-02    0.948783        0.980904    
         0.982324        0.983199        0.984047        0.984919        0.986957        0.997406        9.337797E-02    4.350133E-03    7.422152E-05   -7.455908E-06
        -9.010044E-07   -5.080746E-08   -1.027899E-09    1.046843E-10    8.811289E-12   -7.945873E-12   -4.306187E-12   -1.300714E-12   -4.585466E-13   -1.000000E+30
        -1.000000E+30   -1.000000E+30   -1.000000E+30   -1.000000E+30   -1.000000E+30   -1.000000E+30   -1.000000E+30   -1.000000E+30   -1.000000E+30   -1.000000E+30
        -1.000000E+30   -1.000000E+30   -1.000000E+30   -1.000000E+30   -1.000000E+30   -1.000000E+30   -1.000000E+30   -1.000000E+30   -1.000000E+30   -1.000000E+30
1
  CONCENTRATION IN LAYER   3 AT END OF TIME STEP 365 IN STRESS PERIOD    1
  ---------------------------------------------------------------------------

                1               2               3               4               5               6               7               8               9              10
               11              12              13              14              15              16              17              18              19              20
               21              22              23              24              25              26              27              28              29              30
               31              32              33              34              35              36              37              38              39              40
               41              42              43              44              45              46              47              48              49              50
 ................................................................................................................................................................................................................................................................................................................................................................................................................................................................................................................................................................................................................................................................................................................................................................................................................................
   1    -7.327631E-15    9.754368E-15    3.311534E-11    2.318880E-09    2.126435E-08   -1.203586E-05   -1.381560E-04    8.897329E-03    0.877773        0.942942    
         0.946970        0.948800        0.950581        0.952432        0.957274        0.989996        0.135390        1.140902E-02    5.712282E-04    1.112556E-05
        -8.884872E-07   -1.366520E-07   -8.667563E-09    1.003732E-09    1.519868E-10   -6.141409E-11   -1.908072E-11   -5.651616E-12   -2.296858E-12   -5.465550E-13
        -1.041071E-13   -2.520020E-14   -1.000000E+30   -1.000000E+30   -1.000000E+30   -1.000000E+30   -1.000000E+30   -1.000000E+30   -1.000000E+30   -1.000000E+30
        -1.000000E+30   -1.000000E+30   -1.000000E+30   -1.000000E+30   -1.000000E+30   -1.000000E+30   -1.000000E+30   -1.000000E+30   -1.000000E+30   -1.000000E+30
1
  CONCENTRATION IN LAYER   4 AT END OF TIME STEP 365 IN STRESS PERIOD    1
  ---------------------------------------------------------------------------

                1               2               3               4               5               6               7               8               9              10
               11              12              13              14              15              16              17              18              19              20
               21              22              23              24              25              26              27              28              29              30
               31              32              33              34              35              36              37              38              39              40
               41              42              43              44              45              46              47              48              49              50
 ................................................................................................................................................................................................................................................................................................................................................................................................................................................................................................................................................................................................................................................................................................................................................................................................................................
   1    -6.441083E-15   -1.550924E-13    1.504913E-11    3.023573E-09    1.449623E-07   -1.171572E-05   -4.214963E-04    1.140739E-03    0.793964        0.884629    
         0.891675        0.894046        0.896319        0.898680        0.905760        0.971248        0.157490        1.868533E-02    1.431632E-03    7.120296E-05
         1.536371E-06   -1.073939E-07   -1.274443E-08    5.153964E-08    5.728689E-09   -2.387765E-10   -5.923751E-11   -1.666448E-11   -5.019427E-12   -1.476605E-12
        -4.042105E-13   -1.354405E-13   -2.149627E-14   -1.249096E-15   -8.636261E-17   -1.000000E+30   -1.000000E+30   -1.000000E+30   -1.000000E+30   -1.000000E+30
        -1.000000E+30   -1.000000E+30   -1.000000E+30   -1.000000E+30   -1.000000E+30   -1.000000E+30   -1.000000E+30   -1.000000E+30   -1.000000E+30   -1.000000E+30
1
  CONCENTRATION IN LAYER   5 AT END OF TIME STEP 365 IN STRESS PERIOD    1
  ---------------------------------------------------------------------------

                1               2               3               4               5               6               7               8               9              10
               11              12              13              14              15              16              17              18              19              20
               21              22              23              24              25              26              27              28              29              30
               31              32              33              34              35              36              37              38              39              40
               41              42              43              44              45              46              47              48              49              50
 ................................................................................................................................................................................................................................................................................................................................................................................................................................................................................................................................................................................................................................................................................................................................................................................................................................
   1    -4.795675E-15   -2.164844E-13   -9.572894E-12    2.458519E-09    2.816092E-07   -7.374892E-06   -5.666227E-04   -6.614119E-03    0.698931        0.805477    
         0.815020        0.817132        0.819053        0.821025        0.828497        0.930561        0.160155        2.362554E-02    2.362722E-03    1.711122E-04
         8.600048E-06    2.352144E-07   -4.706841E-09    6.530355E-07    6.224167E-08    5.898053E-10    4.680417E-11   -2.959719E-12   -2.888851E-12   -1.297212E-12
        -3.564110E-13   -1.071297E-13   -1.921941E-14   -2.071541E-15   -5.790750E-16   -1.024149E-16   -3.058065E-17   -1.451782E-18   -3.710774E-20   -1.236104E-22
         3.747292E-23    2.109177E-24   -1.000000E+30   -1.000000E+30   -1.000000E+30   -1.000000E+30   -1.000000E+30   -1.000000E+30   -1.000000E+30   -1.000000E+30
1
  CONCENTRATION IN LAYER   6 AT END OF TIME STEP 365 IN STRESS PERIOD    1
  ---------------------------------------------------------------------------

                1               2               3               4               5               6               7               8               9              10
               11              12              13              14              15              16              17              18              19              20
               21              22              23              24              25              26              27              28              29              30
               31              32              33              34              35              36              37              38              39              40
               41              42              43              44              45              46              47              48              49              50
 ................................................................................................................................................................................................................................................................................................................................................................................................................................................................................................................................................................................................................................................................................................................................................................................................................................
   1    -3.000428E-15   -1.633394E-13   -2.920754E-11    5.536048E-10    3.615383E-07   -1.081717E-07   -5.869849E-04   -1.346061E-02    0.595563        0.707824    
         0.718619        0.719474        0.720019        0.720545        0.725827        0.857374        0.156150        2.347815E-02    2.625980E-03    2.433976E-04
         1.710491E-05    9.381587E-07    3.057490E-08    3.522496E-06    3.496302E-07    1.002150E-08    1.155844E-09    1.677153E-10    2.841714E-11    4.914725E-13
        -1.491173E-13   -5.882180E-14   -1.603729E-14   -2.027105E-15   -5.502440E-16   -1.358815E-16   -4.962402E-17   -4.573236E-18   -2.861547E-19   -1.506077E-20
        -6.651324E-22   -2.347827E-23   -5.651832E-25    4.236029E-26    5.269701E-26    4.442155E-26    3.328376E-26    2.170300E-26    8.438290E-27   -4.869471E-29
1
  CONCENTRATION IN LAYER   7 AT END OF TIME STEP 365 IN STRESS PERIOD    1
  ---------------------------------------------------------------------------

                1               2               3               4               5               6               7               8               9              10
               11              12              13              14              15              16              17              18              19              20
               21              22              23              24              25              26              27              28              29              30
               31              32              33              34              35              36              37              38              39              40
               41              42              43              44              45              46              47              48              49              50
 ................................................................................................................................................................................................................................................................................................................................................................................................................................................................................................................................................................................................................................................................................................................................................................................................................................
   1    -1.686414E-15   -3.313592E-14   -3.168876E-11   -2.021205E-09    3.461328E-07    7.652608E-06   -5.012211E-04   -1.867007E-02    0.488767        0.597216    
         0.607727        0.606437        0.604749        0.603017        0.603780        0.748711        0.146329        2.180042E-02    2.400016E-03    2.162378E-04
         1.528042E-05    8.885102E-07    4.378897E-08    1.118097E-05    1.243943E-06    6.262285E-08    8.825504E-10    5.328191E-11    8.349399E-12    5.583432E-13
        -9.943387E-14   -3.526057E-14   -9.918259E-15   -1.828744E-15   -3.710473E-16   -1.563185E-16   -5.717351E-17   -6.482114E-18   -5.320889E-19   -3.732278E-20
        -2.297785E-21   -1.327099E-22   -9.644743E-24   -1.316676E-24    2.523738E-26    3.262684E-25    3.317965E-25    2.452387E-25    1.105637E-25    1.841646E-27
1
  CONCENTRATION IN LAYER   8 AT END OF TIME STEP 365 IN STRESS PERIOD    1
  ---------------------------------------------------------------------------

                1               2               3               4               5               6               7               8               9              10
               11              12              13              14              15              16              17              18              19              20
               21              22              23              24              25              26              27              28              29              30
               31              32              33              34              35              36              37              38              39              40
               41              42              43              44              45              46              47              48              49              50
 ................................................................................................................................................................................................................................................................................................................................................................................................................................................................................................................................................................................................................................................................................................................................................................................................................................
   1    -1.236292E-15    1.036135E-13   -1.850259E-11   -4.106165E-09    2.510426E-07    1.346400E-05   -3.208199E-04   -2.180252E-02    0.384816        0.481743    
         0.490573        0.486694        0.482410        0.478316        0.473281        0.612935        0.130809        1.909095E-02    2.060789E-03    1.781166E-04
         1.297395E-05    9.410743E-07    2.149055E-08    2.593581E-05    3.110566E-06    1.789429E-07    4.059352E-09    2.727478E-11    1.557478E-12    2.934573E-14
        -6.726535E-14   -2.930250E-14   -6.535865E-15   -1.276362E-15   -2.614671E-16   -1.424224E-16   -5.854263E-17   -7.388606E-18   -6.972260E-19   -5.755429E-20
        -4.517399E-21   -4.628865E-22   -9.722927E-23   -3.266346E-23   -9.988487E-24   -1.554963E-24    1.205724E-24    1.694409E-24    1.090140E-24    6.839746E-26
1
  CONCENTRATION IN LAYER   9 AT END OF TIME STEP 365 IN STRESS PERIOD    1
  ---------------------------------------------------------------------------

                1               2               3               4               5               6               7               8               9              10
               11              12              13              14              15              16              17              18              19              20
               21              22              23              24              25              26              27              28              29              30
               31              32              33              34              35              36              37              38              39              40
               41              42              43              44              45              46              47              48              49              50
 ................................................................................................................................................................................................................................................................................................................................................................................................................................................................................................................................................................................................................................................................................................................................................................................................................................
   1    -1.497322E-15    1.858278E-13    5.835427E-12   -4.659009E-09    1.101485E-07    1.543605E-05   -1.108817E-04   -2.284360E-02    0.290253        0.370673    
         0.376890        0.370568        0.363908        0.357898        0.347604        0.466845        0.110534        1.613511E-02    1.755734E-03    1.718182E-04
         1.827995E-05    2.752963E-06   -2.198422E-08    4.930713E-05    6.815888E-06    3.516966E-07    9.406004E-09    8.986574E-11   -8.526377E-13   -3.348337E-13
        -8.252492E-14   -1.723943E-14   -3.394021E-15   -6.837837E-16   -2.221865E-16   -1.298335E-16   -5.742533E-17   -7.625194E-18   -7.909287E-19   -8.068161E-20
        -1.156157E-20   -3.282449E-21   -1.328734E-21   -5.821648E-22   -2.389036E-22   -8.687958E-23   -2.290405E-23    1.320759E-24    6.970370E-24    1.569605E-24
1
  CONCENTRATION IN LAYER  10 AT END OF TIME STEP 365 IN STRESS PERIOD    1
  ---------------------------------------------------------------------------

                1               2               3               4               5               6               7               8               9              10
               11              12              13              14              15              16              17              18              19              20
               21              22              23              24              25              26              27              28              29              30
               31              32              33              34              35              36              37              38              39              40
               41              42              43              44              45              46              47              48              49              50
 ................................................................................................................................................................................................................................................................................................................................................................................................................................................................................................................................................................................................................................................................................................................................................................................................................................
   1    -2.243564E-15    2.437020E-13    2.812286E-11   -3.818474E-09   -1.703245E-09    1.406841E-05    5.259606E-05   -2.260460E-02    0.210917        0.273067    
         0.276429        0.268197        0.259717        0.252388        0.238658        0.329127        8.800694E-02    1.393828E-02    1.926015E-03    3.198367E-04
         6.810231E-05    1.762475E-05    1.119720E-06    8.218929E-05    1.273098E-05    7.440188E-07    2.346785E-08    3.403006E-10   -4.106755E-13   -3.573420E-13
        -9.399481E-14   -1.285467E-14   -1.738092E-15   -3.643079E-16   -1.904932E-16   -1.130902E-16   -5.472175E-17   -7.806151E-18   -1.037085E-18   -2.143874E-19
        -7.886840E-20   -3.691651E-20   -1.787583E-20   -8.690373E-21   -4.068228E-21   -1.811697E-21   -7.397482E-22   -2.505212E-22   -3.845203E-23    2.155601E-23
1
  CONCENTRATION IN LAYER  11 AT END OF TIME STEP 365 IN STRESS PERIOD    1
  ---------------------------------------------------------------------------

                1               2               3               4               5               6               7               8               9              10
               11              12              13              14              15              16              17              18              19              20
               21              22              23              24              25              26              27              28              29              30
               31              32              33              34              35              36              37              38              39              40
               41              42              43              44              45              46              47              48              49              50
 ................................................................................................................................................................................................................................................................................................................................................................................................................................................................................................................................................................................................................................................................................................................................................................................................................................
   1    -3.738146E-15    4.175772E-13    4.013592E-11   -2.403128E-09   -1.679029E-08    1.133322E-05    8.374965E-05   -2.197271E-02    0.151495        0.197329    
         0.198797        0.189176        0.179163        0.170528        0.155045        0.213572        6.914821E-02    1.637589E-02    4.154015E-03    1.218223E-03
         3.980218E-04    1.335060E-04    3.203688E-05    1.249468E-04    2.204794E-05    1.507703E-06    5.590058E-08    1.042097E-09    2.122599E-12   -5.101306E-13
        -1.431392E-13   -1.694298E-14   -1.381512E-15   -2.363113E-16   -1.373812E-16   -9.165885E-17   -5.165428E-17   -1.085461E-17   -3.297148E-18   -1.509069E-18
        -7.838461E-19   -4.153735E-19   -2.185720E-19   -1.141648E-19   -5.835575E-20   -2.902325E-20   -1.386770E-20   -6.212272E-21   -2.398951E-21   -3.312683E-22
1
  CONCENTRATION IN LAYER  12 AT END OF TIME STEP 365 IN STRESS PERIOD    1
  ---------------------------------------------------------------------------

                1               2               3               4               5               6               7               8               9              10
               11              12              13              14              15              16              17              18              19              20
               21              22              23              24              25              26              27              28              29              30
               31              32              33              34              35              36              37              38              39              40
               41              42              43              44              45              46              47              48              49              50
 ................................................................................................................................................................................................................................................................................................................................................................................................................................................................................................................................................................................................................................................................................................................................................................................................................................
   1    -1.668647E-14    2.349680E-13    4.253085E-11   -7.656558E-10    1.202245E-08    8.132669E-06    1.664060E-05   -2.024156E-02    6.942364E-02    9.862614E-02
         0.113136        0.111111        0.105755        9.963741E-02    8.932378E-02    0.103240        7.451278E-02    3.750765E-02    1.554399E-02    5.974587E-03
         2.240974E-03    8.302388E-04    3.123163E-04    1.838893E-04    3.508309E-05    3.279461E-06    1.497118E-07    4.128571E-09    7.392089E-11    4.136422E-13
        -5.305178E-14   -1.580832E-14   -1.743218E-15   -1.901391E-16   -9.594614E-17   -6.894907E-17   -4.739558E-17   -2.706482E-17   -1.523172E-17   -8.552258E-18
        -4.796425E-18   -2.680398E-18   -1.488356E-18   -8.174497E-19   -4.426524E-19   -2.352248E-19   -1.218625E-19   -6.094237E-20   -2.931066E-20   -2.274230E-20
1
  CONCENTRATION IN LAYER  13 AT END OF TIME STEP 365 IN STRESS PERIOD    1
  ---------------------------------------------------------------------------

                1               2               3               4               5               6               7               8               9              10
               11              12              13              14              15              16              17              18              19              20
               21              22              23              24              25              26              27              28              29              30
               31              32              33              34              35              36              37              38              39              40
               41              42              43              44              45              46              47              48              49              50
 ................................................................................................................................................................................................................................................................................................................................................................................................................................................................................................................................................................................................................................................................................................................................................................................................................................
   1    -1.668695E-14   -4.469691E-13    2.939586E-11   -3.874505E-11    4.506850E-08    8.254476E-06   -5.441437E-06   -1.692936E-02    1.501772E-02    4.529164E-02
         6.103467E-02    6.293871E-02    6.135508E-02    5.838922E-02    5.246019E-02    5.528059E-02    4.869043E-02    3.349497E-02    1.856396E-02    8.811167E-03
         3.769119E-03    1.507631E-03    5.870195E-04    2.318965E-04    5.142282E-05    5.068237E-06    2.677788E-07    9.674980E-09    2.755528E-10    6.343844E-12
         1.000324E-13   -2.268437E-15   -7.942722E-16   -1.269459E-16   -5.202556E-17   -4.163630E-17   -3.638240E-17   -2.363500E-17   -1.458971E-17   -8.764886E-18
        -5.155236E-18   -2.976346E-18   -1.687576E-18   -9.383010E-19   -5.101498E-19   -2.698632E-19   -1.377095E-19   -6.676375E-20   -3.000844E-20   -1.729159E-20
1
  CONCENTRATION IN LAYER  14 AT END OF TIME STEP 365 IN STRESS PERIOD    1
  ---------------------------------------------------------------------------

                1               2               3               4               5               6               7               8               9              10
               11              12              13              14              15              16              17              18              19              20
               21              22              23              24              25              26              27              28              29              30
               31              32              33              34              35              36              37              38              39              40
               41              42              43              44              45              46              47              48              49              50
 ................................................................................................................................................................................................................................................................................................................................................................................................................................................................................................................................................................................................................................................................................................................................................................................................................................
   1     9.651046E-15   -5.726282E-13    6.073822E-12    1.029979E-10    6.772189E-08    8.670904E-06    1.136856E-04   -5.981870E-03    1.842471E-03    1.630638E-02
         2.761787E-02    3.151332E-02    3.145430E-02    3.055305E-02    2.781933E-02    2.784751E-02    2.629286E-02    2.128703E-02    1.431346E-02    8.158403E-03
         4.086065E-03    1.839650E-03    7.734557E-04    2.742624E-04    5.542307E-05    5.539137E-06    3.305011E-07    1.438632E-08    5.192249E-10    1.646681E-11
         4.646224E-13    1.158697E-14    1.221924E-16    1.723129E-17    6.153430E-18   -9.907187E-18   -1.842751E-17   -1.274054E-17   -8.350575E-18   -5.307882E-18
        -3.271286E-18   -1.954982E-18   -1.131690E-18   -6.327719E-19   -3.394949E-19   -1.725441E-19   -8.089130E-20   -3.277123E-20   -8.960898E-21    2.082435E-21
1
  CONCENTRATION IN LAYER  15 AT END OF TIME STEP 365 IN STRESS PERIOD    1
  ---------------------------------------------------------------------------

                1               2               3               4               5               6               7               8               9              10
               11              12              13              14              15              16              17              18              19              20
               21              22              23              24              25              26              27              28              29              30
               31              32              33              34              35              36              37              38              39              40
               41              42              43              44              45              46              47              48              49              50
 ................................................................................................................................................................................................................................................................................................................................................................................................................................................................................................................................................................................................................................................................................................................................................................................................................................
   1     2.000420E-14   -1.753686E-13   -9.404568E-13   -9.702517E-10    1.430717E-08    5.717314E-06    9.090373E-05   -1.990031E-03   -4.107656E-04    4.634633E-03
         1.031343E-02    1.347637E-02    1.419958E-02    1.405911E-02    1.321141E-02    1.285339E-02    1.237101E-02    1.094453E-02    8.419726E-03    5.555085E-03
         3.185540E-03    1.615241E-03    7.462340E-04    2.693769E-04    5.421321E-05    5.564191E-06    3.518794E-07    1.683641E-08    6.909689E-10    2.586965E-11
         9.083475E-13    3.072692E-14    9.885936E-16    9.320540E-17    4.872509E-17    1.786594E-17    2.659556E-18    6.247284E-19   -1.730204E-19   -3.904798E-19
        -3.563035E-19   -2.461555E-19   -1.378041E-19   -5.769305E-20   -7.536857E-21    1.908826E-20    2.998345E-20    3.165223E-20    2.879742E-20    2.568851E-20
1
  CONCENTRATION IN LAYER  16 AT END OF TIME STEP 365 IN STRESS PERIOD    1
  ---------------------------------------------------------------------------

                1               2               3               4               5               6               7               8               9              10
               11              12              13              14              15              16              17              18              19              20
               21              22              23              24              25              26              27              28              29              30
[...]
               31              32              33              34              35              36              37              38              39              40
               41              42              43              44              45              46              47              48              49              50
 ................................................................................................................................................................................................................................................................................................................................................................................................................................................................................................................................................................................................................................................................................................................................................................................................................................
   1     2.615016E-14   -6.356515E-13   -4.861116E-12    1.289244E-10    1.241231E-09   -7.864475E-10   -4.010803E-07   -5.683501E-06   -1.735477E-05   -7.464613E-06
         7.137582E-05    3.363074E-04    9.487269E-04    2.068100E-03    3.800012E-03    6.167657E-03    9.120054E-03    1.256139E-02    1.637341E-02    2.042683E-02
         2.447997E-02    3.042328E-02    7.726736E-02    9.197434E-02    0.112133        0.135344        0.155210        0.173570        0.189046        0.197238    
         0.197818        0.195745        0.189207        0.177365        0.161858        0.121594        7.173662E-02    2.427227E-02    9.783367E-03    4.215673E-03
         3.274082E-03    2.888358E-03    2.549076E-03    2.228749E-03    1.935971E-03    1.675107E-03    1.445777E-03    1.243078E-03    1.056448E-03    6.356920E-04
1
  CONCENTRATION IN LAYER  22 AT END OF TIME STEP *** IN STRESS PERIOD    2
  ---------------------------------------------------------------------------

                1               2               3               4               5               6               7               8               9              10
               11              12              13              14              15              16              17              18              19              20
               21              22              23              24              25              26              27              28              29              30
               31              32              33              34              35              36              37              38              39              40
               41              42              43              44              45              46              47              48              49              50
 ................................................................................................................................................................................................................................................................................................................................................................................................................................................................................................................................................................................................................................................................................................................................................................................................................................
   1     5.144379E-15    1.943414E-14   -1.013671E-12   -8.440450E-12    1.960453E-10    2.689405E-09    4.762178E-08   -7.216130E-07   -4.952806E-06   -4.949081E-06
         1.056836E-05    7.384278E-05    2.318653E-04    5.336061E-04    1.013831E-03    1.683080E-03    2.529488E-03    3.528030E-03    4.647209E-03    5.852222E-03
         7.059407E-03    9.341066E-03    5.139796E-02    9.347552E-02    0.113854        0.136079        0.154173        0.170092        0.182638        0.188255    
         0.188182        0.185432        0.178304        0.166608        0.151733        0.114054        6.487277E-02    2.212458E-02    7.156713E-03    1.234886E-03
         5.022356E-04    4.099439E-04    3.592645E-04    3.129535E-04    2.698606E-04    2.314876E-04    1.980673E-04    1.688160E-04    1.411676E-04    7.499537E-05
1
  CONCENTRATION IN LAYER  23 AT END OF TIME STEP *** IN STRESS PERIOD    2
  ---------------------------------------------------------------------------

                1               2               3               4               5               6               7               8               9              10
               11              12              13              14              15              16              17              18              19              20
               21              22              23              24              25              26              27              28              29              30
               31              32              33              34              35              36              37              38              39              40
               41              42              43              44              45              46              47              48              49              50
 ................................................................................................................................................................................................................................................................................................................................................................................................................................................................................................................................................................................................................................................................................................................................................................................................................................
   1     7.618798E-18    3.519462E-15    5.588207E-14   -2.462140E-12    1.567627E-11   -1.472032E-10    1.524113E-08   -6.989117E-08   -8.071125E-07   -1.252910E-06
         9.041747E-07    1.143976E-05    3.997225E-05    9.711798E-05    1.911689E-04    3.256797E-04    4.995597E-04    7.089531E-04    9.485777E-04    1.212263E-03
         1.481305E-03    2.173981E-03    2.562471E-02    9.407506E-02    0.114987        0.133988        0.150282        0.164375        0.174101        0.176852    
         0.175975        0.171878        0.163561        0.151541        0.137109        0.108530        5.752636E-02    2.206439E-02    3.638679E-03    3.589675E-04
         7.225468E-05    5.039022E-05    4.356198E-05    3.793172E-05    3.258749E-05    2.778273E-05    2.361704E-05    1.999998E-05    1.652813E-05    8.121612E-06
1
  CONCENTRATION IN LAYER  24 AT END OF TIME STEP *** IN STRESS PERIOD    2
  ---------------------------------------------------------------------------

                1               2               3               4               5               6               7               8               9              10
               11              12              13              14              15              16              17              18              19              20
               21              22              23              24              25              26              27              28              29              30
               31              32              33              34              35              36              37              38              39              40
               41              42              43              44              45              46              47              48              49              50
 ................................................................................................................................................................................................................................................................................................................................................................................................................................................................................................................................................................................................................................................................................................................................................................................................................................
   1     1.049885E-17   -3.645856E-16    1.607887E-14   -2.756499E-13    5.841471E-12   -1.127742E-10    2.158130E-09   -4.004286E-09   -8.861157E-08   -1.896643E-07
         2.818674E-08    1.325198E-06    5.148423E-06    1.321622E-05    2.702190E-05    4.741108E-05    7.453364E-05    1.081099E-04    1.476242E-04    1.923012E-04
         2.416704E-04    5.257156E-04    1.304866E-02    9.409673E-02    0.115278        0.129306        0.143572        0.155683        0.162216        0.162752    
         0.160901        0.155280        0.145822        0.133578        0.119750        9.582536E-02    5.223242E-02    2.042556E-02    2.970899E-03    1.976379E-04
         1.371899E-05    5.547479E-06    4.599511E-06    4.008369E-06    3.444131E-06    2.925861E-06    2.475711E-06    2.087150E-06    1.711295E-06    8.059017E-07
1
  CONCENTRATION IN LAYER  25 AT END OF TIME STEP *** IN STRESS PERIOD    2
  ---------------------------------------------------------------------------

                1               2               3               4               5               6               7               8               9              10
               11              12              13              14              15              16              17              18              19              20
               21              22              23              24              25              26              27              28              29              30
               31              32              33              34              35              36              37              38              39              40
               41              42              43              44              45              46              47              48              49              50
 ................................................................................................................................................................................................................................................................................................................................................................................................................................................................................................................................................................................................................................................................................................................................................................................................................................
   1     3.937290E-18   -5.977232E-17    1.328232E-15   -3.725497E-14    5.828277E-13   -1.593043E-11    1.868202E-10   -9.529909E-11   -6.939397E-09   -1.945057E-08
        -3.154522E-09    1.183251E-07    5.094896E-07    1.383437E-06    2.947357E-06    5.347466E-06    8.654539E-06    1.289064E-05    1.805058E-05    2.404456E-05
         3.331024E-05    1.806095E-04    6.213889E-03    9.249632E-02    0.113137        0.122500        0.133791        0.143034        0.146399        0.145981    
         0.143117        0.136564        0.126734        0.114841        0.101940        8.265643E-02    4.831712E-02    1.835568E-02    2.474673E-03    1.435151E-04
         5.592108E-06    6.370660E-07    4.300794E-07    3.716414E-07    3.206537E-07    2.723128E-07    2.298026E-07    1.932071E-07    1.577607E-07    7.326579E-08
1
  CONCENTRATION IN LAYER  26 AT END OF TIME STEP *** IN STRESS PERIOD    2
  ---------------------------------------------------------------------------

                1               2               3               4               5               6               7               8               9              10
               11              12              13              14              15              16              17              18              19              20
               21              22              23              24              25              26              27              28              29              30
               31              32              33              34              35              36              37              38              39              40
               41              42              43              44              45              46              47              48              49              50
 ................................................................................................................................................................................................................................................................................................................................................................................................................................................................................................................................................................................................................................................................................................................................................................................................................................
   1     2.652751E-19   -2.070002E-18    1.021984E-16   -1.756574E-15    5.875186E-14   -1.190414E-12    1.072664E-11    3.588982E-12   -3.971629E-10   -1.413786E-09
        -4.830706E-10    8.281505E-09    3.923315E-08    1.128506E-07    2.514936E-07    4.740891E-07    7.939556E-07    1.220693E-06    1.761838E-06    2.424740E-06
         5.423815E-06    1.165651E-04    4.391793E-03    8.625441E-02    9.994028E-02    0.110740        0.120175        0.127201        0.128970        0.128302    
         0.125233        0.118805        0.109514        9.851656E-02    8.678394E-02    7.178787E-02    4.630316E-02    1.329486E-02    1.445048E-03    7.316598E-05
         2.476187E-06    1.069279E-07    3.674924E-08    3.047601E-08    2.641846E-08    2.251297E-08    1.899121E-08    1.595079E-08    1.301921E-08    6.111882E-09
1
  CONCENTRATION IN LAYER  27 AT END OF TIME STEP *** IN STRESS PERIOD    2
  ---------------------------------------------------------------------------

                1               2               3               4               5               6               7               8               9              10
               11              12              13              14              15              16              17              18              19              20
               21              22              23              24              25              26              27              28              29              30
               31              32              33              34              35              36              37              38              39              40
               41              42              43              44              45              46              47              48              49              50
 ................................................................................................................................................................................................................................................................................................................................................................................................................................................................................................................................................................................................................................................................................................................................................................................................................................
   1     6.515288E-21   -9.435875E-20    4.096383E-18   -1.309159E-16    3.480191E-15   -5.618890E-14    4.148396E-13    5.211414E-13   -1.674378E-11   -7.625485E-11
        -3.741778E-11    4.625072E-10    2.426716E-09    7.468393E-09    1.759085E-08    3.480184E-08    6.089307E-08    9.753476E-08    1.464011E-07    2.177756E-07
         1.383232E-06    6.449463E-05    2.828478E-03    7.028076E-02    8.329258E-02    9.582264E-02    0.106679        0.114250        0.116245        0.115743    
         0.113095        0.107326        9.881382E-02    8.863624E-02    7.784815E-02    6.528012E-02    4.355872E-02    1.226911E-02    1.237719E-03    5.582642E-05
         1.664429E-06    4.475574E-08    3.690512E-09    2.386419E-09    2.055598E-09    1.765979E-09    1.494365E-09    1.256603E-09    1.030689E-09    5.029960E-10

 CONCENTRATION WILL BE SAVED ON UNIT 1030 AT END OF TIME STEP 1095, STRESS PERIOD    2


  MASS BUDGET FOR ENTIRE MODEL AT END OF TIME STEP 1095, STRESS PERIOD   2
  ---------------------------------------------------------------------------------------------------

     CUMULATIVE MASS      M       RATES FOR THIS TIME STEP      M/T          PACKAGE NAME    
     ------------------                 ------------------------                     ----------------

           IN:                                      IN:
           ---                                      ---
     STORAGE-AQUEOUS =          38.6086       STORAGE-AQUEOUS =       5.2815E-03     MST                              
                RCHA =           0.0000                  RCHA =           0.0000     SSM_RCH-1                        
                 CHD =           0.0000                   CHD =           0.0000     SSM_CHD-1                        
                 CNC =          23.3666                   CNC =       7.7218E-09     CNC-1                            

            TOTAL IN =          61.9751              TOTAL IN =       5.2815E-03

          OUT:                                     OUT:
          ----                                     ----
     STORAGE-AQUEOUS =          58.3980       STORAGE-AQUEOUS =       4.4330E-03     MST                              
                RCHA =           0.0000                  RCHA =           0.0000     SSM_RCH-1                        
                 CHD =           0.3666                   CHD =       8.4362E-04     SSM_CHD-1                        
                 CNC =           3.2105                   CNC =       4.8279E-06     CNC-1                            

           TOTAL OUT =          61.9752             TOTAL OUT =       5.2815E-03

            IN - OUT =      -2.4170E-05              IN - OUT =       1.6914E-09

 PERCENT DISCREPANCY =          -0.00     PERCENT DISCREPANCY =           0.00




         TIME SUMMARY AT END OF TIME STEP 1095 IN STRESS PERIOD    2
                    SECONDS     MINUTES      HOURS       DAYS        YEARS
                    -----------------------------------------------------------
   TIME STEP LENGTH 4.32000E+05  7200.0      120.00      5.0000     1.36893E-02
 STRESS PERIOD TIME 4.73040E+08 7.88400E+06 1.31400E+05  5475.0      14.990    
         TOTAL TIME 6.30720E+08 1.05120E+07 1.75200E+05  7300.0      19.986    


end timestep

