 LISTING FILE: trans.list
                         UNIT  16

 OPENING ../mf2005/mt3d_link.ftl
 FILE TYPE:FTL   UNIT  10

 OPENING trans.btn
 FILE TYPE:BTN   UNIT  31

 OPENING trans.adv
 FILE TYPE:ADV   UNIT  32

 OPENING trans.dsp
 FILE TYPE:DSP   UNIT  33

 OPENING trans.rct
 FILE TYPE:RCT   UNIT  36

 OPENING trans.ssm
 FILE TYPE:SSM   UNIT  34

 OPENING trans.gcg
 FILE TYPE:GCG   UNIT  35

                              +++++++++++++++++++++++++++++++++++++++++++++++++++++++++++++++++++++++
                              +                                                                     +
                              +                               MT3DMS                                +
                              +             A Modular 3D Multi-Species Transport Model              +
                              +    For Simulation of Advection, Dispersion and Chemical Reactions   +
                              +                of Contaminants in Groundwater Systems               +
                              +                                                                     +
                              +++++++++++++++++++++++++++++++++++++++++++++++++++++++++++++++++++++++

  ----- 
 | M T | ## BTN for MT3DMS, generated by Flopy.                                          
 | 3 D | ##                                                                              
  ----- 
 THE TRANSPORT MODEL CONSISTS OF     1 LAYER(S)    1 ROW(S)  101 COLUMN(S)
 NUMBER OF STRESS PERIOD(S) FOR TRANSPORT SIMULATION =    2
 NUMBER OF ALL COMPONENTS INCLUDED IN SIMULATION =    1
 NUMBER OF MOBILE COMPONENTS INCLUDED IN SIMULATION =    1
 UNIT FOR TIME IS D   ;  UNIT FOR LENGTH IS M   ;  UNIT FOR MASS IS KG  
 OPTIONAL PACKAGES INCLUDED IN CURRENT SIMULATION:
  o ADV   ON UNIT 32
  o DSP   ON UNIT 33
  o SSM   ON UNIT 34
  o RCT   ON UNIT 36
  o GCG   ON UNIT 35

 BTN5 -- BASIC TRANSPORT PACKAGE, VERSION 5, FEBRUARY 2010, INPUT READ FROM UNIT 31
       1820 ELEMENTS OF THE  X ARRAY USED BY THE BTN PACKAGE
        102 ELEMENTS OF THE IX ARRAY USED BY THE BTN PACKAGE

 FMI5 -- FLOW MODEL INTERFACE PACKAGE, VERSION 5, FEBRUARY 2010, INPUT READ FROM UNIT 10
 FLOW MODEL IS STEADY-STATE

 ADV5 -- ADVECTION PACKAGE, VERSION 5, FEBRUARY 2010, INPUT READ FROM UNIT 32
 ADVECTION IS SOLVED WITH THE UPSTREAM FINITE DIFFERENCE SCHEME
 COURANT NUMBER ALLOWED IN SOLVING THE ADVECTION TERM = 0.750    
          0 ELEMENTS OF THE  X ARRAY USED BY THE ADV PACKAGE
          0 ELEMENTS OF THE IX ARRAY USED BY THE ADV PACKAGE

 DSP5 -- DISPERSION PACKAGE, VERSION 5, FEBRUARY 2010, INPUT READ FROM UNIT 33
       1113 ELEMENTS OF THE  X ARRAY USED BY THE DSP PACKAGE
          0 ELEMENTS OF THE IX ARRAY USED BY THE DSP PACKAGE

 SSM5 -- SINK & SOURCE MIXING PACKAGE, VERSION 5, FEBRUARY 2010, INPUT READ FROM UNIT 34
 HEADER LINE OF THE SSM PACKAGE INPUT FILE:
  T F F F F F F F F F F F F F F F                                                                                                                                                                        
 MAJOR STRESS COMPONENTS PRESENT IN THE FLOW MODEL:
  o WELL [WEL]
 MAXIMUM NUMBER OF POINT SINKS/SOURCES =       2
         26 ELEMENTS OF THE  X ARRAY USED BY THE SSM PACKAGE
          0 ELEMENTS OF THE IX ARRAY BY THE SSM PACKAGE

 RCT5 -- CHEMICAL REACTION PACKAGE, VERSION 5, FEBRUARY 2010, INPUT READ FROM UNIT 36
 TYPE OF SORPTION SELECTED IS [NON-EQUILIBRIUM]
 NO FIRST-ORDER RATE REACTION IS SIMULATED
 REACTION COEFFICIENTS ASSIGNED CELL-BY-CELL
 INITIAL SORBED/IMMOBILE PHASE CONCENTRATION ASSIGNED BY DEFAULT
        303 ELEMENTS OF THE  X ARRAY USED BY THE RCT PACKAGE
          0 ELEMENTS OF THE IX ARRAY USED BY THE RCT PACKAGE

 GCG5 -- GENERALIZED CONJUGATE GRADIENT SOLVER PACKAGE, VERSION 5, FEBRUARY 2010 INPUT READ FROM UNIT 35
 MAXIMUM OF    1 OUTER ITERATIONS
        AND   50 INNER ITERATIONS ALLOWED FOR CLOSURE
 THE PRECONDITIONING TYPE SELECTED IS MODIFIED INCOMPLETE CHOLESKY (MIC).
 DISPERSION CROSS TERMS LUMPED INTO RIGHT-HAND-SIDE
       2272 ELEMENTS OF THE  X ARRAY USED BY THE GCG PACKAGE
        150 ELEMENTS OF THE IX ARRAY USED BY THE GCG PACKAGE

 ..........................................
 ELEMENTS OF THE  X ARRAY USED =      5535
 ELEMENTS OF THE IX ARRAY USED =       253
 ..........................................

 LAYER NUMBER  AQUIFER TYPE
 ------------  ------------
       1            0
                                       WIDTH ALONG ROWS (DELR)  =  0.1600000    
                                       WIDTH ALONG COLS (DELC)  =  0.1600000    
                                       TOP ELEV. OF 1ST LAYER   =   1.000000    

                     CELL THICKNESS (DZ)      FOR LAYER  1 READ ON UNIT 31 USING FORMAT: "         (101E15.6) "
                     ------------------------------------------------------------------------------------------
                                       POROSITY                 =  0.3700000     FOR LAYER  1
                                       CONCN. BOUNDARY ARRAY    =              1 FOR LAYER  1
                                       INITIAL CONC.: COMP.  01 =   0.000000     FOR LAYER  1

 VALUE INDICATING INACTIVE CONCENTRATION CELLS =   0.1000000E+31
 MINIMUM SATURATED THICKNESS [THKMIN] ALLOWED =  0.0100 OF TOTAL CELL THICKNESS


 OUTPUT CONTROL OPTIONS
 ----------------------

 PRINT CELL CONCENTRATION USING FORMAT CODE:    1
 DO NOT PRINT PARTICLE NUMBER IN EACH CELL
 DO NOT PRINT RETARDATION FACTOR
 DO NOT PRINT DISPERSION COEFFICIENT
 SAVE DISSOLVED PHASE CONCENTRATIONS IN UNFORMATTED FILES [MT3Dnnn.UCN]
  FOR EACH SPECIES ON UNITS 201 AND ABOVE
 SAVE SORBED/IMMOBILE PHASE CONCENTRATIONS IN UNFORMATTED FILES [MT3DnnnS.UCN]
  FOR EACH SPECIES ON UNITS 301 AND ABOVE, IF SORPTION/MASS TRANSFER SIMULATED

 NUMBER OF TIMES AT WHICH SIMULATION RESULTS ARE SAVED =    0

 NUMBER OF OBSERVATION POINTS =    1
 SAVE CONCENTRATIONS AT OBSERVATION POINTS IN FILES [MT3Dnnn.OBS]
  FOR EACH SPECIES ON UNITS 401 AND ABOVE, EVERY  1 TRANSPORT STEPS
 LOCATION OF OBSERVATION POINTS
 ..............................
 NUMBER  LAYER   ROW   COLUMN
   1        1      1     51

 SAVE ONE-LINE SUMMARY OF MASS BUDGETS IN FILES [MT3Dnnn.MAS]
  FOR EACH SPECIES ON UNITS 601 AND ABOVE, EVERY  1 TRANSPORT STEPS

 MAXIMUM LENGTH ALONG THE X (J) AXIS =   16.15999    
 MAXIMUM LENGTH ALONG THE Y (I) AXIS =  0.1600000    
 MAXIMUM LENGTH ALONG THE Z (K) AXIS =   1.000000    


 ADVECTION SOLUTION OPTIONS
 --------------------------

 ADVECTION IS SOLVED WITH THE UPSTREAM FINITE DIFFERENCE SCHEME
 COURANT NUMBER ALLOWED IN SOLVING THE ADVECTION TERM = 0.750    


 DISPERSION INPUT PARAMETERS
 ---------------------------

                                       LONG. DISPERSIVITY (AL)  =   1.000000     FOR LAYER  1
                                       H. TRANS./LONG. DISP.    =  0.1000000    
                                       V. TRANS./LONG. DISP.    =  0.1000000E-01
                                       DIFFUSION COEFFICIENT    =  0.1000000E-08


 SORPTION AND 1ST/0TH ORDER REACTION PARAMETERS
 ----------------------------------------------

                                       BULK DENSITY (RHOB)      =   1.587000     FOR LAYER  1
                                       1ST SORP. COEF. COMP. 01 =  0.9330000     FOR LAYER  1
                                       2ND SORP. COEF. COMP. 01 =   20.00000     FOR LAYER  1

 MAXIMUM STEPSIZE WHICH MEETS STABILITY CRITERION OF THE REACTION TERM
 = 0.1000E+31 AT K=   0, I=   0, J=   0



                                               SOLUTION BY THE GENERALIZED CONJUGATE GRADIENT METHOD
                                               -----------------------------------------------------
                                     MAXIMUM OUTER ITERATIONS ALLOWED FOR CLOSURE =        1
                                     MAXIMUM INNER ITERATIONS ALLOWED FOR CLOSURE =       50
                                                    PRECONDITIONING TYPE SELECTED =    3
                                                           ACCELERATION PARAMETER =     1.0000    
                                       CONCENTRATION CHANGE CRITERION FOR CLOSURE =    0.10000E-07
                                       GCG CONCENTRATION CHANGE PRINTOUT INTERVAL =      999


                                   ++++++++++++++++++++++++++++++++++++++++++++++++++++++++++++++
                                                       STRESS PERIOD NO.  001
                                   ++++++++++++++++++++++++++++++++++++++++++++++++++++++++++++++


 LENGTH OF CURRENT STRESS PERIOD =   160.0000    
 NUMBER OF TIME STEPS FOR CURRENT STRESS PERIOD =    1
 TIME STEP MULTIPLIER USED IN FLOW SOLUTION =   1.000000    

 ***Type of Transport Simulation is TRANSIENT

 USER-SPECIFIED TRANSPORT STEPSIZE =   1.000000    D   
 MAXIMUM NUMBER OF TRANSPORT STEPS ALLOWED  IN ONE FLOW TIME STEP =     50000
 MULTIPLIER FOR SUCCESSIVE TRANSPORT STEPS  [USED IN IMPLICIT SCHEMES] =     1.000
 MAXIMUM TRANSPORT STEP SIZE  [USED IN IMPLICIT SCHEMES] =   0.000000    D   

       NO    LAYER   ROW   COLUMN   CONCENTRATION       TYPE            COMPONENT
       1       1       1       1      0.5000000E-01     WELL                1


                                          ================================================
                                                         TIME STEP NO.  001
                                          ================================================

 FROM TIME =   0.0000     TO    160.00    


                    "THKSAT          " FLOW TERMS FOR TIME STEP  1, STRESS PERIOD  1 READ UNFORMATTED ON UNIT 10
                    --------------------------------------------------------------------------------------------

                    "QXX             " FLOW TERMS FOR TIME STEP  1, STRESS PERIOD  1 READ UNFORMATTED ON UNIT 10
                    --------------------------------------------------------------------------------------------

 MAXIMUM STEPSIZE DURING WHICH ANY PARTICLE CANNOT MOVE MORE THAN ONE CELL
 =  1.600    (WHEN MIN. R.F.=1)  AT K=   1, I=   1, J=   2

 MAXIMUM STEPSIZE WHICH MEETS STABILITY CRITERION OF THE ADVECTION TERM
 (FOR PURE FINITE-DIFFERENCE OPTION, MIXELM=0) 
 =  1.600    (WHEN MIN. R.F.=1)  AT K=   1, I=   1, J=   2

                    "CNH             " FLOW TERMS FOR TIME STEP  1, STRESS PERIOD  1 READ UNFORMATTED ON UNIT 10
                    --------------------------------------------------------------------------------------------

                    "WEL             " FLOW TERMS FOR TIME STEP  1, STRESS PERIOD  1 READ UNFORMATTED ON UNIT 10
                    --------------------------------------------------------------------------------------------


 TOTAL NUMBER OF POINT SOURCES/SINKS PRESENT IN THE FLOW MODEL =     2

 MAXIMUM STEPSIZE WHICH MEETS STABILITY CRITERION OF THE SINK & SOURCE TERM
 =  1.600    (WHEN MIN. R.F.=1)  AT K=   1, I=   1, J=   1

 MAXIMUM STEPSIZE WHICH MEETS STABILITY CRITERION OF THE DISPERSION TERM
 = 0.1280    (WHEN MIN. R.F.=1)  AT K=   1, I=   1, J=   1


     1 CALLS TO GCG PACKAGE FOR TRANSPORT TIME STEP   1 IN FLOW TIME STEP   1 STRESS PERIOD   1
     2 TOTAL ITERATIONS
     1 CALLS TO GCG PACKAGE FOR TRANSPORT TIME STEP   2 IN FLOW TIME STEP   1 STRESS PERIOD   1
     3 TOTAL ITERATIONS
     1 CALLS TO GCG PACKAGE FOR TRANSPORT TIME STEP   3 IN FLOW TIME STEP   1 STRESS PERIOD   1
     2 TOTAL ITERATIONS
     1 CALLS TO GCG PACKAGE FOR TRANSPORT TIME STEP   4 IN FLOW TIME STEP   1 STRESS PERIOD   1
     2 TOTAL ITERATIONS
     1 CALLS TO GCG PACKAGE FOR TRANSPORT TIME STEP   5 IN FLOW TIME STEP   1 STRESS PERIOD   1
     2 TOTAL ITERATIONS
     1 CALLS TO GCG PACKAGE FOR TRANSPORT TIME STEP   6 IN FLOW TIME STEP   1 STRESS PERIOD   1
     3 TOTAL ITERATIONS
     1 CALLS TO GCG PACKAGE FOR TRANSPORT TIME STEP   7 IN FLOW TIME STEP   1 STRESS PERIOD   1
     3 TOTAL ITERATIONS
     1 CALLS TO GCG PACKAGE FOR TRANSPORT TIME STEP   8 IN FLOW TIME STEP   1 STRESS PERIOD   1
     2 TOTAL ITERATIONS
     1 CALLS TO GCG PACKAGE FOR TRANSPORT TIME STEP   9 IN FLOW TIME STEP   1 STRESS PERIOD   1
     2 TOTAL ITERATIONS
     1 CALLS TO GCG PACKAGE FOR TRANSPORT TIME STEP  10 IN FLOW TIME STEP   1 STRESS PERIOD   1
     2 TOTAL ITERATIONS
     1 CALLS TO GCG PACKAGE FOR TRANSPORT TIME STEP  11 IN FLOW TIME STEP   1 STRESS PERIOD   1
     2 TOTAL ITERATIONS
     1 CALLS TO GCG PACKAGE FOR TRANSPORT TIME STEP  12 IN FLOW TIME STEP   1 STRESS PERIOD   1
     2 TOTAL ITERATIONS
     1 CALLS TO GCG PACKAGE FOR TRANSPORT TIME STEP  13 IN FLOW TIME STEP   1 STRESS PERIOD   1
     2 TOTAL ITERATIONS
     1 CALLS TO GCG PACKAGE FOR TRANSPORT TIME STEP  14 IN FLOW TIME STEP   1 STRESS PERIOD   1
     2 TOTAL ITERATIONS
     1 CALLS TO GCG PACKAGE FOR TRANSPORT TIME STEP  15 IN FLOW TIME STEP   1 STRESS PERIOD   1
     2 TOTAL ITERATIONS
     1 CALLS TO GCG PACKAGE FOR TRANSPORT TIME STEP  16 IN FLOW TIME STEP   1 STRESS PERIOD   1
     2 TOTAL ITERATIONS
     1 CALLS TO GCG PACKAGE FOR TRANSPORT TIME STEP  17 IN FLOW TIME STEP   1 STRESS PERIOD   1
     2 TOTAL ITERATIONS
     1 CALLS TO GCG PACKAGE FOR TRANSPORT TIME STEP  18 IN FLOW TIME STEP   1 STRESS PERIOD   1
     2 TOTAL ITERATIONS
     1 CALLS TO GCG PACKAGE FOR TRANSPORT TIME STEP  19 IN FLOW TIME STEP   1 STRESS PERIOD   1
     2 TOTAL ITERATIONS
     1 CALLS TO GCG PACKAGE FOR TRANSPORT TIME STEP  20 IN FLOW TIME STEP   1 STRESS PERIOD   1
     2 TOTAL ITERATIONS
     1 CALLS TO GCG PACKAGE FOR TRANSPORT TIME STEP  21 IN FLOW TIME STEP   1 STRESS PERIOD   1
     2 TOTAL ITERATIONS
     1 CALLS TO GCG PACKAGE FOR TRANSPORT TIME STEP  22 IN FLOW TIME STEP   1 STRESS PERIOD   1
     2 TOTAL ITERATIONS
     1 CALLS TO GCG PACKAGE FOR TRANSPORT TIME STEP  23 IN FLOW TIME STEP   1 STRESS PERIOD   1
     2 TOTAL ITERATIONS
     1 CALLS TO GCG PACKAGE FOR TRANSPORT TIME STEP  24 IN FLOW TIME STEP   1 STRESS PERIOD   1
     2 TOTAL ITERATIONS
     1 CALLS TO GCG PACKAGE FOR TRANSPORT TIME STEP  25 IN FLOW TIME STEP   1 STRESS PERIOD   1
     2 TOTAL ITERATIONS
     1 CALLS TO GCG PACKAGE FOR TRANSPORT TIME STEP  26 IN FLOW TIME STEP   1 STRESS PERIOD   1
     2 TOTAL ITERATIONS
     1 CALLS TO GCG PACKAGE FOR TRANSPORT TIME STEP  27 IN FLOW TIME STEP   1 STRESS PERIOD   1
     2 TOTAL ITERATIONS
     1 CALLS TO GCG PACKAGE FOR TRANSPORT TIME STEP  28 IN FLOW TIME STEP   1 STRESS PERIOD   1
     2 TOTAL ITERATIONS
     1 CALLS TO GCG PACKAGE FOR TRANSPORT TIME STEP  29 IN FLOW TIME STEP   1 STRESS PERIOD   1
     2 TOTAL ITERATIONS
     1 CALLS TO GCG PACKAGE FOR TRANSPORT TIME STEP  30 IN FLOW TIME STEP   1 STRESS PERIOD   1
     2 TOTAL ITERATIONS
     1 CALLS TO GCG PACKAGE FOR TRANSPORT TIME STEP  31 IN FLOW TIME STEP   1 STRESS PERIOD   1
     2 TOTAL ITERATIONS
     1 CALLS TO GCG PACKAGE FOR TRANSPORT TIME STEP  32 IN FLOW TIME STEP   1 STRESS PERIOD   1
     2 TOTAL ITERATIONS
     1 CALLS TO GCG PACKAGE FOR TRANSPORT TIME STEP  33 IN FLOW TIME STEP   1 STRESS PERIOD   1
     2 TOTAL ITERATIONS
     1 CALLS TO GCG PACKAGE FOR TRANSPORT TIME STEP  34 IN FLOW TIME STEP   1 STRESS PERIOD   1
     2 TOTAL ITERATIONS
     1 CALLS TO GCG PACKAGE FOR TRANSPORT TIME STEP  35 IN FLOW TIME STEP   1 STRESS PERIOD   1
     2 TOTAL ITERATIONS
     1 CALLS TO GCG PACKAGE FOR TRANSPORT TIME STEP  36 IN FLOW TIME STEP   1 STRESS PERIOD   1
     2 TOTAL ITERATIONS
     1 CALLS TO GCG PACKAGE FOR TRANSPORT TIME STEP  37 IN FLOW TIME STEP   1 STRESS PERIOD   1
     2 TOTAL ITERATIONS
     1 CALLS TO GCG PACKAGE FOR TRANSPORT TIME STEP  38 IN FLOW TIME STEP   1 STRESS PERIOD   1
     2 TOTAL ITERATIONS
     1 CALLS TO GCG PACKAGE FOR TRANSPORT TIME STEP  39 IN FLOW TIME STEP   1 STRESS PERIOD   1
     2 TOTAL ITERATIONS
     1 CALLS TO GCG PACKAGE FOR TRANSPORT TIME STEP  40 IN FLOW TIME STEP   1 STRESS PERIOD   1
     2 TOTAL ITERATIONS
     1 CALLS TO GCG PACKAGE FOR TRANSPORT TIME STEP  41 IN FLOW TIME STEP   1 STRESS PERIOD   1
     2 TOTAL ITERATIONS
     1 CALLS TO GCG PACKAGE FOR TRANSPORT TIME STEP  42 IN FLOW TIME STEP   1 STRESS PERIOD   1
     2 TOTAL ITERATIONS
     1 CALLS TO GCG PACKAGE FOR TRANSPORT TIME STEP  43 IN FLOW TIME STEP   1 STRESS PERIOD   1
     2 TOTAL ITERATIONS
     1 CALLS TO GCG PACKAGE FOR TRANSPORT TIME STEP  44 IN FLOW TIME STEP   1 STRESS PERIOD   1
     2 TOTAL ITERATIONS
     1 CALLS TO GCG PACKAGE FOR TRANSPORT TIME STEP  45 IN FLOW TIME STEP   1 STRESS PERIOD   1
     2 TOTAL ITERATIONS
     1 CALLS TO GCG PACKAGE FOR TRANSPORT TIME STEP  46 IN FLOW TIME STEP   1 STRESS PERIOD   1
     2 TOTAL ITERATIONS
     1 CALLS TO GCG PACKAGE FOR TRANSPORT TIME STEP  47 IN FLOW TIME STEP   1 STRESS PERIOD   1
     2 TOTAL ITERATIONS
     1 CALLS TO GCG PACKAGE FOR TRANSPORT TIME STEP  48 IN FLOW TIME STEP   1 STRESS PERIOD   1
     2 TOTAL ITERATIONS
     1 CALLS TO GCG PACKAGE FOR TRANSPORT TIME STEP  49 IN FLOW TIME STEP   1 STRESS PERIOD   1
     2 TOTAL ITERATIONS
     1 CALLS TO GCG PACKAGE FOR TRANSPORT TIME STEP  50 IN FLOW TIME STEP   1 STRESS PERIOD   1
     2 TOTAL ITERATIONS
     1 CALLS TO GCG PACKAGE FOR TRANSPORT TIME STEP  51 IN FLOW TIME STEP   1 STRESS PERIOD   1
     2 TOTAL ITERATIONS
     1 CALLS TO GCG PACKAGE FOR TRANSPORT TIME STEP  52 IN FLOW TIME STEP   1 STRESS PERIOD   1
     2 TOTAL ITERATIONS
     1 CALLS TO GCG PACKAGE FOR TRANSPORT TIME STEP  53 IN FLOW TIME STEP   1 STRESS PERIOD   1
     2 TOTAL ITERATIONS
     1 CALLS TO GCG PACKAGE FOR TRANSPORT TIME STEP  54 IN FLOW TIME STEP   1 STRESS PERIOD   1
     2 TOTAL ITERATIONS
     1 CALLS TO GCG PACKAGE FOR TRANSPORT TIME STEP  55 IN FLOW TIME STEP   1 STRESS PERIOD   1
     2 TOTAL ITERATIONS
     1 CALLS TO GCG PACKAGE FOR TRANSPORT TIME STEP  56 IN FLOW TIME STEP   1 STRESS PERIOD   1
     2 TOTAL ITERATIONS
     1 CALLS TO GCG PACKAGE FOR TRANSPORT TIME STEP  57 IN FLOW TIME STEP   1 STRESS PERIOD   1
     2 TOTAL ITERATIONS
     1 CALLS TO GCG PACKAGE FOR TRANSPORT TIME STEP  58 IN FLOW TIME STEP   1 STRESS PERIOD   1
     2 TOTAL ITERATIONS
     1 CALLS TO GCG PACKAGE FOR TRANSPORT TIME STEP  59 IN FLOW TIME STEP   1 STRESS PERIOD   1
     2 TOTAL ITERATIONS
     1 CALLS TO GCG PACKAGE FOR TRANSPORT TIME STEP  60 IN FLOW TIME STEP   1 STRESS PERIOD   1
     2 TOTAL ITERATIONS
     1 CALLS TO GCG PACKAGE FOR TRANSPORT TIME STEP  61 IN FLOW TIME STEP   1 STRESS PERIOD   1
     2 TOTAL ITERATIONS
     1 CALLS TO GCG PACKAGE FOR TRANSPORT TIME STEP  62 IN FLOW TIME STEP   1 STRESS PERIOD   1
     2 TOTAL ITERATIONS
     1 CALLS TO GCG PACKAGE FOR TRANSPORT TIME STEP  63 IN FLOW TIME STEP   1 STRESS PERIOD   1
     2 TOTAL ITERATIONS
     1 CALLS TO GCG PACKAGE FOR TRANSPORT TIME STEP  64 IN FLOW TIME STEP   1 STRESS PERIOD   1
     2 TOTAL ITERATIONS
     1 CALLS TO GCG PACKAGE FOR TRANSPORT TIME STEP  65 IN FLOW TIME STEP   1 STRESS PERIOD   1
     2 TOTAL ITERATIONS
     1 CALLS TO GCG PACKAGE FOR TRANSPORT TIME STEP  66 IN FLOW TIME STEP   1 STRESS PERIOD   1
     2 TOTAL ITERATIONS
     1 CALLS TO GCG PACKAGE FOR TRANSPORT TIME STEP  67 IN FLOW TIME STEP   1 STRESS PERIOD   1
     2 TOTAL ITERATIONS
     1 CALLS TO GCG PACKAGE FOR TRANSPORT TIME STEP  68 IN FLOW TIME STEP   1 STRESS PERIOD   1
     2 TOTAL ITERATIONS
     1 CALLS TO GCG PACKAGE FOR TRANSPORT TIME STEP  69 IN FLOW TIME STEP   1 STRESS PERIOD   1
     2 TOTAL ITERATIONS
     1 CALLS TO GCG PACKAGE FOR TRANSPORT TIME STEP  70 IN FLOW TIME STEP   1 STRESS PERIOD   1
     2 TOTAL ITERATIONS
     1 CALLS TO GCG PACKAGE FOR TRANSPORT TIME STEP  71 IN FLOW TIME STEP   1 STRESS PERIOD   1
     2 TOTAL ITERATIONS
     1 CALLS TO GCG PACKAGE FOR TRANSPORT TIME STEP  72 IN FLOW TIME STEP   1 STRESS PERIOD   1
     2 TOTAL ITERATIONS
     1 CALLS TO GCG PACKAGE FOR TRANSPORT TIME STEP  73 IN FLOW TIME STEP   1 STRESS PERIOD   1
     2 TOTAL ITERATIONS
     1 CALLS TO GCG PACKAGE FOR TRANSPORT TIME STEP  74 IN FLOW TIME STEP   1 STRESS PERIOD   1
     2 TOTAL ITERATIONS
     1 CALLS TO GCG PACKAGE FOR TRANSPORT TIME STEP  75 IN FLOW TIME STEP   1 STRESS PERIOD   1
     2 TOTAL ITERATIONS
     1 CALLS TO GCG PACKAGE FOR TRANSPORT TIME STEP  76 IN FLOW TIME STEP   1 STRESS PERIOD   1
     2 TOTAL ITERATIONS
     1 CALLS TO GCG PACKAGE FOR TRANSPORT TIME STEP  77 IN FLOW TIME STEP   1 STRESS PERIOD   1
     2 TOTAL ITERATIONS
     1 CALLS TO GCG PACKAGE FOR TRANSPORT TIME STEP  78 IN FLOW TIME STEP   1 STRESS PERIOD   1
     2 TOTAL ITERATIONS
     1 CALLS TO GCG PACKAGE FOR TRANSPORT TIME STEP  79 IN FLOW TIME STEP   1 STRESS PERIOD   1
     2 TOTAL ITERATIONS
     1 CALLS TO GCG PACKAGE FOR TRANSPORT TIME STEP  80 IN FLOW TIME STEP   1 STRESS PERIOD   1
     2 TOTAL ITERATIONS
     1 CALLS TO GCG PACKAGE FOR TRANSPORT TIME STEP  81 IN FLOW TIME STEP   1 STRESS PERIOD   1
     2 TOTAL ITERATIONS
     1 CALLS TO GCG PACKAGE FOR TRANSPORT TIME STEP  82 IN FLOW TIME STEP   1 STRESS PERIOD   1
     2 TOTAL ITERATIONS
     1 CALLS TO GCG PACKAGE FOR TRANSPORT TIME STEP  83 IN FLOW TIME STEP   1 STRESS PERIOD   1
     2 TOTAL ITERATIONS
     1 CALLS TO GCG PACKAGE FOR TRANSPORT TIME STEP  84 IN FLOW TIME STEP   1 STRESS PERIOD   1
     2 TOTAL ITERATIONS
     1 CALLS TO GCG PACKAGE FOR TRANSPORT TIME STEP  85 IN FLOW TIME STEP   1 STRESS PERIOD   1
     2 TOTAL ITERATIONS
     1 CALLS TO GCG PACKAGE FOR TRANSPORT TIME STEP  86 IN FLOW TIME STEP   1 STRESS PERIOD   1
     2 TOTAL ITERATIONS
     1 CALLS TO GCG PACKAGE FOR TRANSPORT TIME STEP  87 IN FLOW TIME STEP   1 STRESS PERIOD   1
     2 TOTAL ITERATIONS
     1 CALLS TO GCG PACKAGE FOR TRANSPORT TIME STEP  88 IN FLOW TIME STEP   1 STRESS PERIOD   1
     2 TOTAL ITERATIONS
     1 CALLS TO GCG PACKAGE FOR TRANSPORT TIME STEP  89 IN FLOW TIME STEP   1 STRESS PERIOD   1
     2 TOTAL ITERATIONS
     1 CALLS TO GCG PACKAGE FOR TRANSPORT TIME STEP  90 IN FLOW TIME STEP   1 STRESS PERIOD   1
     2 TOTAL ITERATIONS
     1 CALLS TO GCG PACKAGE FOR TRANSPORT TIME STEP  91 IN FLOW TIME STEP   1 STRESS PERIOD   1
     2 TOTAL ITERATIONS
     1 CALLS TO GCG PACKAGE FOR TRANSPORT TIME STEP  92 IN FLOW TIME STEP   1 STRESS PERIOD   1
     2 TOTAL ITERATIONS
     1 CALLS TO GCG PACKAGE FOR TRANSPORT TIME STEP  93 IN FLOW TIME STEP   1 STRESS PERIOD   1
     2 TOTAL ITERATIONS
     1 CALLS TO GCG PACKAGE FOR TRANSPORT TIME STEP  94 IN FLOW TIME STEP   1 STRESS PERIOD   1
     2 TOTAL ITERATIONS
     1 CALLS TO GCG PACKAGE FOR TRANSPORT TIME STEP  95 IN FLOW TIME STEP   1 STRESS PERIOD   1
     2 TOTAL ITERATIONS
     1 CALLS TO GCG PACKAGE FOR TRANSPORT TIME STEP  96 IN FLOW TIME STEP   1 STRESS PERIOD   1
     2 TOTAL ITERATIONS
     1 CALLS TO GCG PACKAGE FOR TRANSPORT TIME STEP  97 IN FLOW TIME STEP   1 STRESS PERIOD   1
     2 TOTAL ITERATIONS
     1 CALLS TO GCG PACKAGE FOR TRANSPORT TIME STEP  98 IN FLOW TIME STEP   1 STRESS PERIOD   1
     2 TOTAL ITERATIONS
     1 CALLS TO GCG PACKAGE FOR TRANSPORT TIME STEP  99 IN FLOW TIME STEP   1 STRESS PERIOD   1
     2 TOTAL ITERATIONS
     1 CALLS TO GCG PACKAGE FOR TRANSPORT TIME STEP 100 IN FLOW TIME STEP   1 STRESS PERIOD   1
     2 TOTAL ITERATIONS
     1 CALLS TO GCG PACKAGE FOR TRANSPORT TIME STEP 101 IN FLOW TIME STEP   1 STRESS PERIOD   1
     2 TOTAL ITERATIONS
     1 CALLS TO GCG PACKAGE FOR TRANSPORT TIME STEP 102 IN FLOW TIME STEP   1 STRESS PERIOD   1
     2 TOTAL ITERATIONS
     1 CALLS TO GCG PACKAGE FOR TRANSPORT TIME STEP 103 IN FLOW TIME STEP   1 STRESS PERIOD   1
     2 TOTAL ITERATIONS
     1 CALLS TO GCG PACKAGE FOR TRANSPORT TIME STEP 104 IN FLOW TIME STEP   1 STRESS PERIOD   1
     2 TOTAL ITERATIONS
     1 CALLS TO GCG PACKAGE FOR TRANSPORT TIME STEP 105 IN FLOW TIME STEP   1 STRESS PERIOD   1
     2 TOTAL ITERATIONS
     1 CALLS TO GCG PACKAGE FOR TRANSPORT TIME STEP 106 IN FLOW TIME STEP   1 STRESS PERIOD   1
     2 TOTAL ITERATIONS
     1 CALLS TO GCG PACKAGE FOR TRANSPORT TIME STEP 107 IN FLOW TIME STEP   1 STRESS PERIOD   1
     2 TOTAL ITERATIONS
     1 CALLS TO GCG PACKAGE FOR TRANSPORT TIME STEP 108 IN FLOW TIME STEP   1 STRESS PERIOD   1
     2 TOTAL ITERATIONS
     1 CALLS TO GCG PACKAGE FOR TRANSPORT TIME STEP 109 IN FLOW TIME STEP   1 STRESS PERIOD   1
     2 TOTAL ITERATIONS
     1 CALLS TO GCG PACKAGE FOR TRANSPORT TIME STEP 110 IN FLOW TIME STEP   1 STRESS PERIOD   1
     2 TOTAL ITERATIONS
     1 CALLS TO GCG PACKAGE FOR TRANSPORT TIME STEP 111 IN FLOW TIME STEP   1 STRESS PERIOD   1
     2 TOTAL ITERATIONS
     1 CALLS TO GCG PACKAGE FOR TRANSPORT TIME STEP 112 IN FLOW TIME STEP   1 STRESS PERIOD   1
     2 TOTAL ITERATIONS
     1 CALLS TO GCG PACKAGE FOR TRANSPORT TIME STEP 113 IN FLOW TIME STEP   1 STRESS PERIOD   1
     2 TOTAL ITERATIONS
     1 CALLS TO GCG PACKAGE FOR TRANSPORT TIME STEP 114 IN FLOW TIME STEP   1 STRESS PERIOD   1
     2 TOTAL ITERATIONS
     1 CALLS TO GCG PACKAGE FOR TRANSPORT TIME STEP 115 IN FLOW TIME STEP   1 STRESS PERIOD   1
     2 TOTAL ITERATIONS
     1 CALLS TO GCG PACKAGE FOR TRANSPORT TIME STEP 116 IN FLOW TIME STEP   1 STRESS PERIOD   1
     2 TOTAL ITERATIONS
     1 CALLS TO GCG PACKAGE FOR TRANSPORT TIME STEP 117 IN FLOW TIME STEP   1 STRESS PERIOD   1
     2 TOTAL ITERATIONS
     1 CALLS TO GCG PACKAGE FOR TRANSPORT TIME STEP 118 IN FLOW TIME STEP   1 STRESS PERIOD   1
     2 TOTAL ITERATIONS
     1 CALLS TO GCG PACKAGE FOR TRANSPORT TIME STEP 119 IN FLOW TIME STEP   1 STRESS PERIOD   1
     2 TOTAL ITERATIONS
     1 CALLS TO GCG PACKAGE FOR TRANSPORT TIME STEP 120 IN FLOW TIME STEP   1 STRESS PERIOD   1
     2 TOTAL ITERATIONS
     1 CALLS TO GCG PACKAGE FOR TRANSPORT TIME STEP 121 IN FLOW TIME STEP   1 STRESS PERIOD   1
     2 TOTAL ITERATIONS
     1 CALLS TO GCG PACKAGE FOR TRANSPORT TIME STEP 122 IN FLOW TIME STEP   1 STRESS PERIOD   1
     2 TOTAL ITERATIONS
     1 CALLS TO GCG PACKAGE FOR TRANSPORT TIME STEP 123 IN FLOW TIME STEP   1 STRESS PERIOD   1
     2 TOTAL ITERATIONS
     1 CALLS TO GCG PACKAGE FOR TRANSPORT TIME STEP 124 IN FLOW TIME STEP   1 STRESS PERIOD   1
     2 TOTAL ITERATIONS
     1 CALLS TO GCG PACKAGE FOR TRANSPORT TIME STEP 125 IN FLOW TIME STEP   1 STRESS PERIOD   1
     2 TOTAL ITERATIONS
     1 CALLS TO GCG PACKAGE FOR TRANSPORT TIME STEP 126 IN FLOW TIME STEP   1 STRESS PERIOD   1
     2 TOTAL ITERATIONS
     1 CALLS TO GCG PACKAGE FOR TRANSPORT TIME STEP 127 IN FLOW TIME STEP   1 STRESS PERIOD   1
     2 TOTAL ITERATIONS
     1 CALLS TO GCG PACKAGE FOR TRANSPORT TIME STEP 128 IN FLOW TIME STEP   1 STRESS PERIOD   1
     2 TOTAL ITERATIONS
     1 CALLS TO GCG PACKAGE FOR TRANSPORT TIME STEP 129 IN FLOW TIME STEP   1 STRESS PERIOD   1
     2 TOTAL ITERATIONS
     1 CALLS TO GCG PACKAGE FOR TRANSPORT TIME STEP 130 IN FLOW TIME STEP   1 STRESS PERIOD   1
     2 TOTAL ITERATIONS
     1 CALLS TO GCG PACKAGE FOR TRANSPORT TIME STEP 131 IN FLOW TIME STEP   1 STRESS PERIOD   1
     2 TOTAL ITERATIONS
     1 CALLS TO GCG PACKAGE FOR TRANSPORT TIME STEP 132 IN FLOW TIME STEP   1 STRESS PERIOD   1
     2 TOTAL ITERATIONS
     1 CALLS TO GCG PACKAGE FOR TRANSPORT TIME STEP 133 IN FLOW TIME STEP   1 STRESS PERIOD   1
     2 TOTAL ITERATIONS
     1 CALLS TO GCG PACKAGE FOR TRANSPORT TIME STEP 134 IN FLOW TIME STEP   1 STRESS PERIOD   1
     2 TOTAL ITERATIONS
     1 CALLS TO GCG PACKAGE FOR TRANSPORT TIME STEP 135 IN FLOW TIME STEP   1 STRESS PERIOD   1
     2 TOTAL ITERATIONS
     1 CALLS TO GCG PACKAGE FOR TRANSPORT TIME STEP 136 IN FLOW TIME STEP   1 STRESS PERIOD   1
     2 TOTAL ITERATIONS
     1 CALLS TO GCG PACKAGE FOR TRANSPORT TIME STEP 137 IN FLOW TIME STEP   1 STRESS PERIOD   1
     2 TOTAL ITERATIONS
     1 CALLS TO GCG PACKAGE FOR TRANSPORT TIME STEP 138 IN FLOW TIME STEP   1 STRESS PERIOD   1
     2 TOTAL ITERATIONS
     1 CALLS TO GCG PACKAGE FOR TRANSPORT TIME STEP 139 IN FLOW TIME STEP   1 STRESS PERIOD   1
     2 TOTAL ITERATIONS
     1 CALLS TO GCG PACKAGE FOR TRANSPORT TIME STEP 140 IN FLOW TIME STEP   1 STRESS PERIOD   1
     2 TOTAL ITERATIONS
     1 CALLS TO GCG PACKAGE FOR TRANSPORT TIME STEP 141 IN FLOW TIME STEP   1 STRESS PERIOD   1
     2 TOTAL ITERATIONS
     1 CALLS TO GCG PACKAGE FOR TRANSPORT TIME STEP 142 IN FLOW TIME STEP   1 STRESS PERIOD   1
     2 TOTAL ITERATIONS
     1 CALLS TO GCG PACKAGE FOR TRANSPORT TIME STEP 143 IN FLOW TIME STEP   1 STRESS PERIOD   1
     2 TOTAL ITERATIONS
     1 CALLS TO GCG PACKAGE FOR TRANSPORT TIME STEP 144 IN FLOW TIME STEP   1 STRESS PERIOD   1
     2 TOTAL ITERATIONS
     1 CALLS TO GCG PACKAGE FOR TRANSPORT TIME STEP 145 IN FLOW TIME STEP   1 STRESS PERIOD   1
     2 TOTAL ITERATIONS
     1 CALLS TO GCG PACKAGE FOR TRANSPORT TIME STEP 146 IN FLOW TIME STEP   1 STRESS PERIOD   1
     2 TOTAL ITERATIONS
     1 CALLS TO GCG PACKAGE FOR TRANSPORT TIME STEP 147 IN FLOW TIME STEP   1 STRESS PERIOD   1
     2 TOTAL ITERATIONS
     1 CALLS TO GCG PACKAGE FOR TRANSPORT TIME STEP 148 IN FLOW TIME STEP   1 STRESS PERIOD   1
     2 TOTAL ITERATIONS
     1 CALLS TO GCG PACKAGE FOR TRANSPORT TIME STEP 149 IN FLOW TIME STEP   1 STRESS PERIOD   1
     2 TOTAL ITERATIONS
     1 CALLS TO GCG PACKAGE FOR TRANSPORT TIME STEP 150 IN FLOW TIME STEP   1 STRESS PERIOD   1
     2 TOTAL ITERATIONS
     1 CALLS TO GCG PACKAGE FOR TRANSPORT TIME STEP 151 IN FLOW TIME STEP   1 STRESS PERIOD   1
     2 TOTAL ITERATIONS
     1 CALLS TO GCG PACKAGE FOR TRANSPORT TIME STEP 152 IN FLOW TIME STEP   1 STRESS PERIOD   1
     2 TOTAL ITERATIONS
     1 CALLS TO GCG PACKAGE FOR TRANSPORT TIME STEP 153 IN FLOW TIME STEP   1 STRESS PERIOD   1
     2 TOTAL ITERATIONS
     1 CALLS TO GCG PACKAGE FOR TRANSPORT TIME STEP 154 IN FLOW TIME STEP   1 STRESS PERIOD   1
     2 TOTAL ITERATIONS
     1 CALLS TO GCG PACKAGE FOR TRANSPORT TIME STEP 155 IN FLOW TIME STEP   1 STRESS PERIOD   1
     2 TOTAL ITERATIONS
     1 CALLS TO GCG PACKAGE FOR TRANSPORT TIME STEP 156 IN FLOW TIME STEP   1 STRESS PERIOD   1
     2 TOTAL ITERATIONS
     1 CALLS TO GCG PACKAGE FOR TRANSPORT TIME STEP 157 IN FLOW TIME STEP   1 STRESS PERIOD   1
     2 TOTAL ITERATIONS
     1 CALLS TO GCG PACKAGE FOR TRANSPORT TIME STEP 158 IN FLOW TIME STEP   1 STRESS PERIOD   1
     2 TOTAL ITERATIONS
     1 CALLS TO GCG PACKAGE FOR TRANSPORT TIME STEP 159 IN FLOW TIME STEP   1 STRESS PERIOD   1
     2 TOTAL ITERATIONS
     1 CALLS TO GCG PACKAGE FOR TRANSPORT TIME STEP 160 IN FLOW TIME STEP   1 STRESS PERIOD   1
     2 TOTAL ITERATIONS
  MAXIMUM CONCENTRATION CHANGES FOR EACH ITERATION:
  MAX. CHANGE LAYER,ROW,COL MAX. CHANGE LAYER,ROW,COL MAX. CHANGE LAYER,ROW,COL MAX. CHANGE LAYER,ROW,COL MAX. CHANGE LAYER,ROW,COL
 ------------------------------------------------------------------------------------------------------------------------------------
   0.3863E-02 (  1,  1, 24)   0.000     (  1,  1,  1)



 >>>>>>>>>>>>>>>>>>>>>>>>>>>>>>>>>>>>>>>>>>>>>>>>>>>>>>>FOR COMPONENT NO. 01<<<<<<<<<<<<<<<<<<<<<<<<<<<<<<<<<<<<<<<<<<<<<<<<<<<<<<<


                                            -------------------------------------------
                                                      TRANSPORT STEP NO.  160
                                            -------------------------------------------

 TOTAL ELAPSED TIME SINCE BEGINNING OF SIMULATION =   160.0000    D   
 .....................................................................

                     CONCENTRATIONS   IN LAYER  1 AT END OF TRANSPORT STEP  160, TIME STEP  1, STRESS PERIOD  1
                     ------------------------------------------------------------------------------------------

           1          2          3          4          5          6          7          8          9         10         11
          12         13         14         15         16         17         18         19         20         21         22
          23         24         25         26         27         28         29         30         31         32         33
          34         35         36         37         38         39         40         41         42         43         44
          45         46         47         48         49         50         51         52         53         54         55
          56         57         58         59         60         61         62         63         64         65         66
          67         68         69         70         71         72         73         74         75         76         77
          78         79         80         81         82         83         84         85         86         87         88
          89         90         91         92         93         94         95         96         97         98         99
         100        101
 ..............................................................................................................................
   1   4.503E-02  4.429E-02  4.350E-02  4.266E-02  4.176E-02  4.082E-02  3.983E-02  3.880E-02  3.772E-02  3.660E-02  3.544E-02
       3.425E-02  3.304E-02  3.179E-02  3.053E-02  2.926E-02  2.797E-02  2.668E-02  2.539E-02  2.410E-02  2.283E-02  2.156E-02
       2.032E-02  1.910E-02  1.791E-02  1.675E-02  1.562E-02  1.453E-02  1.348E-02  1.248E-02  1.151E-02  1.060E-02  9.725E-03
       8.901E-03  8.124E-03  7.395E-03  6.712E-03  6.075E-03  5.483E-03  4.935E-03  4.429E-03  3.964E-03  3.538E-03  3.148E-03
       2.793E-03  2.471E-03  2.180E-03  1.918E-03  1.683E-03  1.472E-03  1.284E-03  1.116E-03  9.681E-04  8.371E-04  7.217E-04
       6.205E-04  5.320E-04  4.548E-04  3.877E-04  3.295E-04  2.793E-04  2.361E-04  1.989E-04  1.672E-04  1.401E-04  1.171E-04
       9.759E-05  8.110E-05  6.721E-05  5.554E-05  4.577E-05  3.762E-05  3.083E-05  2.520E-05  2.054E-05  1.670E-05  1.354E-05
       1.095E-05  8.825E-06  7.097E-06  5.692E-06  4.553E-06  3.632E-06  2.890E-06  2.293E-06  1.815E-06  1.433E-06  1.128E-06
       8.861E-07  6.942E-07  5.425E-07  4.230E-07  3.291E-07  2.556E-07  1.984E-07  1.542E-07  1.203E-07  9.494E-08  7.665E-08
       6.459E-08  5.843E-08

                     CUMMULATIVE MASS BUDGETS AT END OF TRANSPORT STEP  160, TIME STEP    1, STRESS PERIOD    1
                     ------------------------------------------------------------------------------------------

                                                             IN                           OUT
                                                      ----------------             ----------------
                               CONSTANT CONCENTRATION:    0.000000                    0.000000    
                                        CONSTANT HEAD:    0.000000                  -0.3305747E-08
                                                WELLS:   0.4736005E-01                0.000000    
                               1ST/0TH ORDER REACTION:    0.000000                    0.000000    
                                MASS STORAGE (SOLUTE):    0.000000                  -0.9472169E-02
                                MASS STORAGE (SORBED):    0.000000                  -0.3788672E-01
                            ---------------------------------------------------------------------------
                                              [TOTAL]:   0.4736005E-01 KG           -0.4735890E-01 KG  

                                                          NET (IN - OUT):   0.1154840E-05
                                                   DISCREPANCY (PERCENT):   0.2438456E-02


                                   ++++++++++++++++++++++++++++++++++++++++++++++++++++++++++++++
                                                       STRESS PERIOD NO.  002
                                   ++++++++++++++++++++++++++++++++++++++++++++++++++++++++++++++


 LENGTH OF CURRENT STRESS PERIOD =   1340.000    
 NUMBER OF TIME STEPS FOR CURRENT STRESS PERIOD =    1
 TIME STEP MULTIPLIER USED IN FLOW SOLUTION =   1.000000    

 ***Type of Transport Simulation is TRANSIENT

 USER-SPECIFIED TRANSPORT STEPSIZE =   1.000000    D   
 MAXIMUM NUMBER OF TRANSPORT STEPS ALLOWED  IN ONE FLOW TIME STEP =     50000
 MULTIPLIER FOR SUCCESSIVE TRANSPORT STEPS  [USED IN IMPLICIT SCHEMES] =     1.000
 MAXIMUM TRANSPORT STEP SIZE  [USED IN IMPLICIT SCHEMES] =   0.000000    D   

       NO    LAYER   ROW   COLUMN   CONCENTRATION       TYPE            COMPONENT


                                          ================================================
                                                         TIME STEP NO.  001
                                          ================================================

 FROM TIME =   160.00     TO    1500.0    


                    "THKSAT          " FLOW TERMS FOR TIME STEP  1, STRESS PERIOD  2 READ UNFORMATTED ON UNIT 10
                    --------------------------------------------------------------------------------------------

                    "QXX             " FLOW TERMS FOR TIME STEP  1, STRESS PERIOD  2 READ UNFORMATTED ON UNIT 10
                    --------------------------------------------------------------------------------------------

 MAXIMUM STEPSIZE DURING WHICH ANY PARTICLE CANNOT MOVE MORE THAN ONE CELL
 =  1.600    (WHEN MIN. R.F.=1)  AT K=   1, I=   1, J=   2

 MAXIMUM STEPSIZE WHICH MEETS STABILITY CRITERION OF THE ADVECTION TERM
 (FOR PURE FINITE-DIFFERENCE OPTION, MIXELM=0) 
 =  1.600    (WHEN MIN. R.F.=1)  AT K=   1, I=   1, J=   2

                    "CNH             " FLOW TERMS FOR TIME STEP  1, STRESS PERIOD  2 READ UNFORMATTED ON UNIT 10
                    --------------------------------------------------------------------------------------------

                    "WEL             " FLOW TERMS FOR TIME STEP  1, STRESS PERIOD  2 READ UNFORMATTED ON UNIT 10
                    --------------------------------------------------------------------------------------------


 TOTAL NUMBER OF POINT SOURCES/SINKS PRESENT IN THE FLOW MODEL =     2

 MAXIMUM STEPSIZE WHICH MEETS STABILITY CRITERION OF THE SINK & SOURCE TERM
 =  1.600    (WHEN MIN. R.F.=1)  AT K=   1, I=   1, J=   1

 MAXIMUM STEPSIZE WHICH MEETS STABILITY CRITERION OF THE DISPERSION TERM
 = 0.1280    (WHEN MIN. R.F.=1)  AT K=   1, I=   1, J=   1


     1 CALLS TO GCG PACKAGE FOR TRANSPORT TIME STEP   1 IN FLOW TIME STEP   1 STRESS PERIOD   2
     2 TOTAL ITERATIONS
     1 CALLS TO GCG PACKAGE FOR TRANSPORT TIME STEP   2 IN FLOW TIME STEP   1 STRESS PERIOD   2
     2 TOTAL ITERATIONS
     1 CALLS TO GCG PACKAGE FOR TRANSPORT TIME STEP   3 IN FLOW TIME STEP   1 STRESS PERIOD   2
     2 TOTAL ITERATIONS
     1 CALLS TO GCG PACKAGE FOR TRANSPORT TIME STEP   4 IN FLOW TIME STEP   1 STRESS PERIOD   2
     2 TOTAL ITERATIONS
     1 CALLS TO GCG PACKAGE FOR TRANSPORT TIME STEP   5 IN FLOW TIME STEP   1 STRESS PERIOD   2
     2 TOTAL ITERATIONS
     1 CALLS TO GCG PACKAGE FOR TRANSPORT TIME STEP   6 IN FLOW TIME STEP   1 STRESS PERIOD   2
     2 TOTAL ITERATIONS
     1 CALLS TO GCG PACKAGE FOR TRANSPORT TIME STEP   7 IN FLOW TIME STEP   1 STRESS PERIOD   2
     2 TOTAL ITERATIONS
     1 CALLS TO GCG PACKAGE FOR TRANSPORT TIME STEP   8 IN FLOW TIME STEP   1 STRESS PERIOD   2
     2 TOTAL ITERATIONS
     1 CALLS TO GCG PACKAGE FOR TRANSPORT TIME STEP   9 IN FLOW TIME STEP   1 STRESS PERIOD   2
     2 TOTAL ITERATIONS
     1 CALLS TO GCG PACKAGE FOR TRANSPORT TIME STEP  10 IN FLOW TIME STEP   1 STRESS PERIOD   2
     2 TOTAL ITERATIONS
     1 CALLS TO GCG PACKAGE FOR TRANSPORT TIME STEP  11 IN FLOW TIME STEP   1 STRESS PERIOD   2
     2 TOTAL ITERATIONS
     1 CALLS TO GCG PACKAGE FOR TRANSPORT TIME STEP  12 IN FLOW TIME STEP   1 STRESS PERIOD   2
     2 TOTAL ITERATIONS
     1 CALLS TO GCG PACKAGE FOR TRANSPORT TIME STEP  13 IN FLOW TIME STEP   1 STRESS PERIOD   2
     2 TOTAL ITERATIONS
     1 CALLS TO GCG PACKAGE FOR TRANSPORT TIME STEP  14 IN FLOW TIME STEP   1 STRESS PERIOD   2
     2 TOTAL ITERATIONS
     1 CALLS TO GCG PACKAGE FOR TRANSPORT TIME STEP  15 IN FLOW TIME STEP   1 STRESS PERIOD   2
     2 TOTAL ITERATIONS
     1 CALLS TO GCG PACKAGE FOR TRANSPORT TIME STEP  16 IN FLOW TIME STEP   1 STRESS PERIOD   2
     2 TOTAL ITERATIONS
     1 CALLS TO GCG PACKAGE FOR TRANSPORT TIME STEP  17 IN FLOW TIME STEP   1 STRESS PERIOD   2
     2 TOTAL ITERATIONS
     1 CALLS TO GCG PACKAGE FOR TRANSPORT TIME STEP  18 IN FLOW TIME STEP   1 STRESS PERIOD   2
     2 TOTAL ITERATIONS
     1 CALLS TO GCG PACKAGE FOR TRANSPORT TIME STEP  19 IN FLOW TIME STEP   1 STRESS PERIOD   2
     2 TOTAL ITERATIONS
     1 CALLS TO GCG PACKAGE FOR TRANSPORT TIME STEP  20 IN FLOW TIME STEP   1 STRESS PERIOD   2
     2 TOTAL ITERATIONS
     1 CALLS TO GCG PACKAGE FOR TRANSPORT TIME STEP  21 IN FLOW TIME STEP   1 STRESS PERIOD   2
     2 TOTAL ITERATIONS
     1 CALLS TO GCG PACKAGE FOR TRANSPORT TIME STEP  22 IN FLOW TIME STEP   1 STRESS PERIOD   2
     2 TOTAL ITERATIONS
     1 CALLS TO GCG PACKAGE FOR TRANSPORT TIME STEP  23 IN FLOW TIME STEP   1 STRESS PERIOD   2
     2 TOTAL ITERATIONS
     1 CALLS TO GCG PACKAGE FOR TRANSPORT TIME STEP  24 IN FLOW TIME STEP   1 STRESS PERIOD   2
     2 TOTAL ITERATIONS
     1 CALLS TO GCG PACKAGE FOR TRANSPORT TIME STEP  25 IN FLOW TIME STEP   1 STRESS PERIOD   2
     2 TOTAL ITERATIONS
     1 CALLS TO GCG PACKAGE FOR TRANSPORT TIME STEP  26 IN FLOW TIME STEP   1 STRESS PERIOD   2
     2 TOTAL ITERATIONS
     1 CALLS TO GCG PACKAGE FOR TRANSPORT TIME STEP  27 IN FLOW TIME STEP   1 STRESS PERIOD   2
     2 TOTAL ITERATIONS
     1 CALLS TO GCG PACKAGE FOR TRANSPORT TIME STEP  28 IN FLOW TIME STEP   1 STRESS PERIOD   2
     2 TOTAL ITERATIONS
     1 CALLS TO GCG PACKAGE FOR TRANSPORT TIME STEP  29 IN FLOW TIME STEP   1 STRESS PERIOD   2
     2 TOTAL ITERATIONS
     1 CALLS TO GCG PACKAGE FOR TRANSPORT TIME STEP  30 IN FLOW TIME STEP   1 STRESS PERIOD   2
     2 TOTAL ITERATIONS
     1 CALLS TO GCG PACKAGE FOR TRANSPORT TIME STEP  31 IN FLOW TIME STEP   1 STRESS PERIOD   2
     2 TOTAL ITERATIONS
     1 CALLS TO GCG PACKAGE FOR TRANSPORT TIME STEP  32 IN FLOW TIME STEP   1 STRESS PERIOD   2
     2 TOTAL ITERATIONS
     1 CALLS TO GCG PACKAGE FOR TRANSPORT TIME STEP  33 IN FLOW TIME STEP   1 STRESS PERIOD   2
     2 TOTAL ITERATIONS
     1 CALLS TO GCG PACKAGE FOR TRANSPORT TIME STEP  34 IN FLOW TIME STEP   1 STRESS PERIOD   2
     2 TOTAL ITERATIONS
     1 CALLS TO GCG PACKAGE FOR TRANSPORT TIME STEP  35 IN FLOW TIME STEP   1 STRESS PERIOD   2
     2 TOTAL ITERATIONS
     1 CALLS TO GCG PACKAGE FOR TRANSPORT TIME STEP  36 IN FLOW TIME STEP   1 STRESS PERIOD   2
     2 TOTAL ITERATIONS
     1 CALLS TO GCG PACKAGE FOR TRANSPORT TIME STEP  37 IN FLOW TIME STEP   1 STRESS PERIOD   2
     2 TOTAL ITERATIONS
     1 CALLS TO GCG PACKAGE FOR TRANSPORT TIME STEP  38 IN FLOW TIME STEP   1 STRESS PERIOD   2
     2 TOTAL ITERATIONS
     1 CALLS TO GCG PACKAGE FOR TRANSPORT TIME STEP  39 IN FLOW TIME STEP   1 STRESS PERIOD   2
     2 TOTAL ITERATIONS
     1 CALLS TO GCG PACKAGE FOR TRANSPORT TIME STEP  40 IN FLOW TIME STEP   1 STRESS PERIOD   2
     2 TOTAL ITERATIONS
     1 CALLS TO GCG PACKAGE FOR TRANSPORT TIME STEP  41 IN FLOW TIME STEP   1 STRESS PERIOD   2
     2 TOTAL ITERATIONS
     1 CALLS TO GCG PACKAGE FOR TRANSPORT TIME STEP  42 IN FLOW TIME STEP   1 STRESS PERIOD   2
     2 TOTAL ITERATIONS
     1 CALLS TO GCG PACKAGE FOR TRANSPORT TIME STEP  43 IN FLOW TIME STEP   1 STRESS PERIOD   2
     2 TOTAL ITERATIONS
     1 CALLS TO GCG PACKAGE FOR TRANSPORT TIME STEP  44 IN FLOW TIME STEP   1 STRESS PERIOD   2
     2 TOTAL ITERATIONS
     1 CALLS TO GCG PACKAGE FOR TRANSPORT TIME STEP  45 IN FLOW TIME STEP   1 STRESS PERIOD   2
     2 TOTAL ITERATIONS
     1 CALLS TO GCG PACKAGE FOR TRANSPORT TIME STEP  46 IN FLOW TIME STEP   1 STRESS PERIOD   2
     2 TOTAL ITERATIONS
     1 CALLS TO GCG PACKAGE FOR TRANSPORT TIME STEP  47 IN FLOW TIME STEP   1 STRESS PERIOD   2
     2 TOTAL ITERATIONS
     1 CALLS TO GCG PACKAGE FOR TRANSPORT TIME STEP  48 IN FLOW TIME STEP   1 STRESS PERIOD   2
     2 TOTAL ITERATIONS
     1 CALLS TO GCG PACKAGE FOR TRANSPORT TIME STEP  49 IN FLOW TIME STEP   1 STRESS PERIOD   2
     2 TOTAL ITERATIONS
     1 CALLS TO GCG PACKAGE FOR TRANSPORT TIME STEP  50 IN FLOW TIME STEP   1 STRESS PERIOD   2
     2 TOTAL ITERATIONS
     1 CALLS TO GCG PACKAGE FOR TRANSPORT TIME STEP  51 IN FLOW TIME STEP   1 STRESS PERIOD   2
     2 TOTAL ITERATIONS
     1 CALLS TO GCG PACKAGE FOR TRANSPORT TIME STEP  52 IN FLOW TIME STEP   1 STRESS PERIOD   2
     2 TOTAL ITERATIONS
     1 CALLS TO GCG PACKAGE FOR TRANSPORT TIME STEP  53 IN FLOW TIME STEP   1 STRESS PERIOD   2
     2 TOTAL ITERATIONS
     1 CALLS TO GCG PACKAGE FOR TRANSPORT TIME STEP  54 IN FLOW TIME STEP   1 STRESS PERIOD   2
     2 TOTAL ITERATIONS
     1 CALLS TO GCG PACKAGE FOR TRANSPORT TIME STEP  55 IN FLOW TIME STEP   1 STRESS PERIOD   2
     2 TOTAL ITERATIONS
     1 CALLS TO GCG PACKAGE FOR TRANSPORT TIME STEP  56 IN FLOW TIME STEP   1 STRESS PERIOD   2
     2 TOTAL ITERATIONS
     1 CALLS TO GCG PACKAGE FOR TRANSPORT TIME STEP  57 IN FLOW TIME STEP   1 STRESS PERIOD   2
     2 TOTAL ITERATIONS
     1 CALLS TO GCG PACKAGE FOR TRANSPORT TIME STEP  58 IN FLOW TIME STEP   1 STRESS PERIOD   2
     2 TOTAL ITERATIONS
     1 CALLS TO GCG PACKAGE FOR TRANSPORT TIME STEP  59 IN FLOW TIME STEP   1 STRESS PERIOD   2
     2 TOTAL ITERATIONS
     1 CALLS TO GCG PACKAGE FOR TRANSPORT TIME STEP  60 IN FLOW TIME STEP   1 STRESS PERIOD   2
     2 TOTAL ITERATIONS
     1 CALLS TO GCG PACKAGE FOR TRANSPORT TIME STEP  61 IN FLOW TIME STEP   1 STRESS PERIOD   2
     2 TOTAL ITERATIONS
     1 CALLS TO GCG PACKAGE FOR TRANSPORT TIME STEP  62 IN FLOW TIME STEP   1 STRESS PERIOD   2
     2 TOTAL ITERATIONS
     1 CALLS TO GCG PACKAGE FOR TRANSPORT TIME STEP  63 IN FLOW TIME STEP   1 STRESS PERIOD   2
     2 TOTAL ITERATIONS
     1 CALLS TO GCG PACKAGE FOR TRANSPORT TIME STEP  64 IN FLOW TIME STEP   1 STRESS PERIOD   2
     2 TOTAL ITERATIONS
     1 CALLS TO GCG PACKAGE FOR TRANSPORT TIME STEP  65 IN FLOW TIME STEP   1 STRESS PERIOD   2
     2 TOTAL ITERATIONS
     1 CALLS TO GCG PACKAGE FOR TRANSPORT TIME STEP  66 IN FLOW TIME STEP   1 STRESS PERIOD   2
     2 TOTAL ITERATIONS
     1 CALLS TO GCG PACKAGE FOR TRANSPORT TIME STEP  67 IN FLOW TIME STEP   1 STRESS PERIOD   2
     2 TOTAL ITERATIONS
     1 CALLS TO GCG PACKAGE FOR TRANSPORT TIME STEP  68 IN FLOW TIME STEP   1 STRESS PERIOD   2
     2 TOTAL ITERATIONS
     1 CALLS TO GCG PACKAGE FOR TRANSPORT TIME STEP  69 IN FLOW TIME STEP   1 STRESS PERIOD   2
     2 TOTAL ITERATIONS
     1 CALLS TO GCG PACKAGE FOR TRANSPORT TIME STEP  70 IN FLOW TIME STEP   1 STRESS PERIOD   2
     2 TOTAL ITERATIONS
     1 CALLS TO GCG PACKAGE FOR TRANSPORT TIME STEP  71 IN FLOW TIME STEP   1 STRESS PERIOD   2
     2 TOTAL ITERATIONS
     1 CALLS TO GCG PACKAGE FOR TRANSPORT TIME STEP  72 IN FLOW TIME STEP   1 STRESS PERIOD   2
     2 TOTAL ITERATIONS
     1 CALLS TO GCG PACKAGE FOR TRANSPORT TIME STEP  73 IN FLOW TIME STEP   1 STRESS PERIOD   2
     2 TOTAL ITERATIONS
     1 CALLS TO GCG PACKAGE FOR TRANSPORT TIME STEP  74 IN FLOW TIME STEP   1 STRESS PERIOD   2
     2 TOTAL ITERATIONS
     1 CALLS TO GCG PACKAGE FOR TRANSPORT TIME STEP  75 IN FLOW TIME STEP   1 STRESS PERIOD   2
     2 TOTAL ITERATIONS
     1 CALLS TO GCG PACKAGE FOR TRANSPORT TIME STEP  76 IN FLOW TIME STEP   1 STRESS PERIOD   2
     2 TOTAL ITERATIONS
     1 CALLS TO GCG PACKAGE FOR TRANSPORT TIME STEP  77 IN FLOW TIME STEP   1 STRESS PERIOD   2
     2 TOTAL ITERATIONS
     1 CALLS TO GCG PACKAGE FOR TRANSPORT TIME STEP  78 IN FLOW TIME STEP   1 STRESS PERIOD   2
     2 TOTAL ITERATIONS
     1 CALLS TO GCG PACKAGE FOR TRANSPORT TIME STEP  79 IN FLOW TIME STEP   1 STRESS PERIOD   2
     2 TOTAL ITERATIONS
     1 CALLS TO GCG PACKAGE FOR TRANSPORT TIME STEP  80 IN FLOW TIME STEP   1 STRESS PERIOD   2
     2 TOTAL ITERATIONS
     1 CALLS TO GCG PACKAGE FOR TRANSPORT TIME STEP  81 IN FLOW TIME STEP   1 STRESS PERIOD   2
     2 TOTAL ITERATIONS
     1 CALLS TO GCG PACKAGE FOR TRANSPORT TIME STEP  82 IN FLOW TIME STEP   1 STRESS PERIOD   2
     2 TOTAL ITERATIONS
     1 CALLS TO GCG PACKAGE FOR TRANSPORT TIME STEP  83 IN FLOW TIME STEP   1 STRESS PERIOD   2
     2 TOTAL ITERATIONS
     1 CALLS TO GCG PACKAGE FOR TRANSPORT TIME STEP  84 IN FLOW TIME STEP   1 STRESS PERIOD   2
     2 TOTAL ITERATIONS
     1 CALLS TO GCG PACKAGE FOR TRANSPORT TIME STEP  85 IN FLOW TIME STEP   1 STRESS PERIOD   2
     2 TOTAL ITERATIONS
     1 CALLS TO GCG PACKAGE FOR TRANSPORT TIME STEP  86 IN FLOW TIME STEP   1 STRESS PERIOD   2
     2 TOTAL ITERATIONS
     1 CALLS TO GCG PACKAGE FOR TRANSPORT TIME STEP  87 IN FLOW TIME STEP   1 STRESS PERIOD   2
     2 TOTAL ITERATIONS
     1 CALLS TO GCG PACKAGE FOR TRANSPORT TIME STEP  88 IN FLOW TIME STEP   1 STRESS PERIOD   2
     2 TOTAL ITERATIONS
     1 CALLS TO GCG PACKAGE FOR TRANSPORT TIME STEP  89 IN FLOW TIME STEP   1 STRESS PERIOD   2
     2 TOTAL ITERATIONS
     1 CALLS TO GCG PACKAGE FOR TRANSPORT TIME STEP  90 IN FLOW TIME STEP   1 STRESS PERIOD   2
     2 TOTAL ITERATIONS
     1 CALLS TO GCG PACKAGE FOR TRANSPORT TIME STEP  91 IN FLOW TIME STEP   1 STRESS PERIOD   2
     2 TOTAL ITERATIONS
     1 CALLS TO GCG PACKAGE FOR TRANSPORT TIME STEP  92 IN FLOW TIME STEP   1 STRESS PERIOD   2
     2 TOTAL ITERATIONS
     1 CALLS TO GCG PACKAGE FOR TRANSPORT TIME STEP  93 IN FLOW TIME STEP   1 STRESS PERIOD   2
     2 TOTAL ITERATIONS
     1 CALLS TO GCG PACKAGE FOR TRANSPORT TIME STEP  94 IN FLOW TIME STEP   1 STRESS PERIOD   2
     2 TOTAL ITERATIONS
     1 CALLS TO GCG PACKAGE FOR TRANSPORT TIME STEP  95 IN FLOW TIME STEP   1 STRESS PERIOD   2
     2 TOTAL ITERATIONS
     1 CALLS TO GCG PACKAGE FOR TRANSPORT TIME STEP  96 IN FLOW TIME STEP   1 STRESS PERIOD   2
     2 TOTAL ITERATIONS
     1 CALLS TO GCG PACKAGE FOR TRANSPORT TIME STEP  97 IN FLOW TIME STEP   1 STRESS PERIOD   2
     2 TOTAL ITERATIONS
     1 CALLS TO GCG PACKAGE FOR TRANSPORT TIME STEP  98 IN FLOW TIME STEP   1 STRESS PERIOD   2
     2 TOTAL ITERATIONS
     1 CALLS TO GCG PACKAGE FOR TRANSPORT TIME STEP  99 IN FLOW TIME STEP   1 STRESS PERIOD   2
     2 TOTAL ITERATIONS
     1 CALLS TO GCG PACKAGE FOR TRANSPORT TIME STEP 100 IN FLOW TIME STEP   1 STRESS PERIOD   2
     2 TOTAL ITERATIONS
     1 CALLS TO GCG PACKAGE FOR TRANSPORT TIME STEP 101 IN FLOW TIME STEP   1 STRESS PERIOD   2
     2 TOTAL ITERATIONS
     1 CALLS TO GCG PACKAGE FOR TRANSPORT TIME STEP 102 IN FLOW TIME STEP   1 STRESS PERIOD   2
     2 TOTAL ITERATIONS
     1 CALLS TO GCG PACKAGE FOR TRANSPORT TIME STEP 103 IN FLOW TIME STEP   1 STRESS PERIOD   2
     2 TOTAL ITERATIONS
     1 CALLS TO GCG PACKAGE FOR TRANSPORT TIME STEP 104 IN FLOW TIME STEP   1 STRESS PERIOD   2
     2 TOTAL ITERATIONS
     1 CALLS TO GCG PACKAGE FOR TRANSPORT TIME STEP 105 IN FLOW TIME STEP   1 STRESS PERIOD   2
     2 TOTAL ITERATIONS
     1 CALLS TO GCG PACKAGE FOR TRANSPORT TIME STEP 106 IN FLOW TIME STEP   1 STRESS PERIOD   2
     2 TOTAL ITERATIONS
     1 CALLS TO GCG PACKAGE FOR TRANSPORT TIME STEP 107 IN FLOW TIME STEP   1 STRESS PERIOD   2
     2 TOTAL ITERATIONS
     1 CALLS TO GCG PACKAGE FOR TRANSPORT TIME STEP 108 IN FLOW TIME STEP   1 STRESS PERIOD   2
     2 TOTAL ITERATIONS
     1 CALLS TO GCG PACKAGE FOR TRANSPORT TIME STEP 109 IN FLOW TIME STEP   1 STRESS PERIOD   2
     2 TOTAL ITERATIONS
     1 CALLS TO GCG PACKAGE FOR TRANSPORT TIME STEP 110 IN FLOW TIME STEP   1 STRESS PERIOD   2
     2 TOTAL ITERATIONS
     1 CALLS TO GCG PACKAGE FOR TRANSPORT TIME STEP 111 IN FLOW TIME STEP   1 STRESS PERIOD   2
     2 TOTAL ITERATIONS
     1 CALLS TO GCG PACKAGE FOR TRANSPORT TIME STEP 112 IN FLOW TIME STEP   1 STRESS PERIOD   2
     2 TOTAL ITERATIONS
     1 CALLS TO GCG PACKAGE FOR TRANSPORT TIME STEP 113 IN FLOW TIME STEP   1 STRESS PERIOD   2
     2 TOTAL ITERATIONS
     1 CALLS TO GCG PACKAGE FOR TRANSPORT TIME STEP 114 IN FLOW TIME STEP   1 STRESS PERIOD   2
     2 TOTAL ITERATIONS
     1 CALLS TO GCG PACKAGE FOR TRANSPORT TIME STEP 115 IN FLOW TIME STEP   1 STRESS PERIOD   2
     2 TOTAL ITERATIONS
     1 CALLS TO GCG PACKAGE FOR TRANSPORT TIME STEP 116 IN FLOW TIME STEP   1 STRESS PERIOD   2
     2 TOTAL ITERATIONS
     1 CALLS TO GCG PACKAGE FOR TRANSPORT TIME STEP 117 IN FLOW TIME STEP   1 STRESS PERIOD   2
     2 TOTAL ITERATIONS
     1 CALLS TO GCG PACKAGE FOR TRANSPORT TIME STEP 118 IN FLOW TIME STEP   1 STRESS PERIOD   2
     2 TOTAL ITERATIONS
     1 CALLS TO GCG PACKAGE FOR TRANSPORT TIME STEP 119 IN FLOW TIME STEP   1 STRESS PERIOD   2
     2 TOTAL ITERATIONS
     1 CALLS TO GCG PACKAGE FOR TRANSPORT TIME STEP 120 IN FLOW TIME STEP   1 STRESS PERIOD   2
     2 TOTAL ITERATIONS
     1 CALLS TO GCG PACKAGE FOR TRANSPORT TIME STEP 121 IN FLOW TIME STEP   1 STRESS PERIOD   2
     2 TOTAL ITERATIONS
     1 CALLS TO GCG PACKAGE FOR TRANSPORT TIME STEP 122 IN FLOW TIME STEP   1 STRESS PERIOD   2
     2 TOTAL ITERATIONS
     1 CALLS TO GCG PACKAGE FOR TRANSPORT TIME STEP 123 IN FLOW TIME STEP   1 STRESS PERIOD   2
     2 TOTAL ITERATIONS
     1 CALLS TO GCG PACKAGE FOR TRANSPORT TIME STEP 124 IN FLOW TIME STEP   1 STRESS PERIOD   2
     2 TOTAL ITERATIONS
     1 CALLS TO GCG PACKAGE FOR TRANSPORT TIME STEP 125 IN FLOW TIME STEP   1 STRESS PERIOD   2
     2 TOTAL ITERATIONS
     1 CALLS TO GCG PACKAGE FOR TRANSPORT TIME STEP 126 IN FLOW TIME STEP   1 STRESS PERIOD   2
     2 TOTAL ITERATIONS
     1 CALLS TO GCG PACKAGE FOR TRANSPORT TIME STEP 127 IN FLOW TIME STEP   1 STRESS PERIOD   2
     2 TOTAL ITERATIONS
     1 CALLS TO GCG PACKAGE FOR TRANSPORT TIME STEP 128 IN FLOW TIME STEP   1 STRESS PERIOD   2
     2 TOTAL ITERATIONS
     1 CALLS TO GCG PACKAGE FOR TRANSPORT TIME STEP 129 IN FLOW TIME STEP   1 STRESS PERIOD   2
     2 TOTAL ITERATIONS
     1 CALLS TO GCG PACKAGE FOR TRANSPORT TIME STEP 130 IN FLOW TIME STEP   1 STRESS PERIOD   2
     2 TOTAL ITERATIONS
     1 CALLS TO GCG PACKAGE FOR TRANSPORT TIME STEP 131 IN FLOW TIME STEP   1 STRESS PERIOD   2
     2 TOTAL ITERATIONS
     1 CALLS TO GCG PACKAGE FOR TRANSPORT TIME STEP 132 IN FLOW TIME STEP   1 STRESS PERIOD   2
     2 TOTAL ITERATIONS
     1 CALLS TO GCG PACKAGE FOR TRANSPORT TIME STEP 133 IN FLOW TIME STEP   1 STRESS PERIOD   2
     2 TOTAL ITERATIONS
     1 CALLS TO GCG PACKAGE FOR TRANSPORT TIME STEP 134 IN FLOW TIME STEP   1 STRESS PERIOD   2
     2 TOTAL ITERATIONS
     1 CALLS TO GCG PACKAGE FOR TRANSPORT TIME STEP 135 IN FLOW TIME STEP   1 STRESS PERIOD   2
     2 TOTAL ITERATIONS
     1 CALLS TO GCG PACKAGE FOR TRANSPORT TIME STEP 136 IN FLOW TIME STEP   1 STRESS PERIOD   2
     2 TOTAL ITERATIONS
     1 CALLS TO GCG PACKAGE FOR TRANSPORT TIME STEP 137 IN FLOW TIME STEP   1 STRESS PERIOD   2
     2 TOTAL ITERATIONS
     1 CALLS TO GCG PACKAGE FOR TRANSPORT TIME STEP 138 IN FLOW TIME STEP   1 STRESS PERIOD   2
     2 TOTAL ITERATIONS
     1 CALLS TO GCG PACKAGE FOR TRANSPORT TIME STEP 139 IN FLOW TIME STEP   1 STRESS PERIOD   2
     2 TOTAL ITERATIONS
     1 CALLS TO GCG PACKAGE FOR TRANSPORT TIME STEP 140 IN FLOW TIME STEP   1 STRESS PERIOD   2
     2 TOTAL ITERATIONS
     1 CALLS TO GCG PACKAGE FOR TRANSPORT TIME STEP 141 IN FLOW TIME STEP   1 STRESS PERIOD   2
     2 TOTAL ITERATIONS
     1 CALLS TO GCG PACKAGE FOR TRANSPORT TIME STEP 142 IN FLOW TIME STEP   1 STRESS PERIOD   2
     2 TOTAL ITERATIONS
     1 CALLS TO GCG PACKAGE FOR TRANSPORT TIME STEP 143 IN FLOW TIME STEP   1 STRESS PERIOD   2
     2 TOTAL ITERATIONS
     1 CALLS TO GCG PACKAGE FOR TRANSPORT TIME STEP 144 IN FLOW TIME STEP   1 STRESS PERIOD   2
     2 TOTAL ITERATIONS
     1 CALLS TO GCG PACKAGE FOR TRANSPORT TIME STEP 145 IN FLOW TIME STEP   1 STRESS PERIOD   2
     2 TOTAL ITERATIONS
     1 CALLS TO GCG PACKAGE FOR TRANSPORT TIME STEP 146 IN FLOW TIME STEP   1 STRESS PERIOD   2
     2 TOTAL ITERATIONS
     1 CALLS TO GCG PACKAGE FOR TRANSPORT TIME STEP 147 IN FLOW TIME STEP   1 STRESS PERIOD   2
     2 TOTAL ITERATIONS
     1 CALLS TO GCG PACKAGE FOR TRANSPORT TIME STEP 148 IN FLOW TIME STEP   1 STRESS PERIOD   2
     2 TOTAL ITERATIONS
     1 CALLS TO GCG PACKAGE FOR TRANSPORT TIME STEP 149 IN FLOW TIME STEP   1 STRESS PERIOD   2
     2 TOTAL ITERATIONS
     1 CALLS TO GCG PACKAGE FOR TRANSPORT TIME STEP 150 IN FLOW TIME STEP   1 STRESS PERIOD   2
     2 TOTAL ITERATIONS
     1 CALLS TO GCG PACKAGE FOR TRANSPORT TIME STEP 151 IN FLOW TIME STEP   1 STRESS PERIOD   2
     2 TOTAL ITERATIONS
     1 CALLS TO GCG PACKAGE FOR TRANSPORT TIME STEP 152 IN FLOW TIME STEP   1 STRESS PERIOD   2
     2 TOTAL ITERATIONS
     1 CALLS TO GCG PACKAGE FOR TRANSPORT TIME STEP 153 IN FLOW TIME STEP   1 STRESS PERIOD   2
     2 TOTAL ITERATIONS
     1 CALLS TO GCG PACKAGE FOR TRANSPORT TIME STEP 154 IN FLOW TIME STEP   1 STRESS PERIOD   2
     2 TOTAL ITERATIONS
     1 CALLS TO GCG PACKAGE FOR TRANSPORT TIME STEP 155 IN FLOW TIME STEP   1 STRESS PERIOD   2
     2 TOTAL ITERATIONS
     1 CALLS TO GCG PACKAGE FOR TRANSPORT TIME STEP 156 IN FLOW TIME STEP   1 STRESS PERIOD   2
     2 TOTAL ITERATIONS
     1 CALLS TO GCG PACKAGE FOR TRANSPORT TIME STEP 157 IN FLOW TIME STEP   1 STRESS PERIOD   2
     2 TOTAL ITERATIONS
     1 CALLS TO GCG PACKAGE FOR TRANSPORT TIME STEP 158 IN FLOW TIME STEP   1 STRESS PERIOD   2
     2 TOTAL ITERATIONS
     1 CALLS TO GCG PACKAGE FOR TRANSPORT TIME STEP 159 IN FLOW TIME STEP   1 STRESS PERIOD   2
     2 TOTAL ITERATIONS
     1 CALLS TO GCG PACKAGE FOR TRANSPORT TIME STEP 160 IN FLOW TIME STEP   1 STRESS PERIOD   2
     2 TOTAL ITERATIONS
     1 CALLS TO GCG PACKAGE FOR TRANSPORT TIME STEP 161 IN FLOW TIME STEP   1 STRESS PERIOD   2
     2 TOTAL ITERATIONS
     1 CALLS TO GCG PACKAGE FOR TRANSPORT TIME STEP 162 IN FLOW TIME STEP   1 STRESS PERIOD   2
     2 TOTAL ITERATIONS
     1 CALLS TO GCG PACKAGE FOR TRANSPORT TIME STEP 163 IN FLOW TIME STEP   1 STRESS PERIOD   2
     2 TOTAL ITERATIONS
     1 CALLS TO GCG PACKAGE FOR TRANSPORT TIME STEP 164 IN FLOW TIME STEP   1 STRESS PERIOD   2
     2 TOTAL ITERATIONS
     1 CALLS TO GCG PACKAGE FOR TRANSPORT TIME STEP 165 IN FLOW TIME STEP   1 STRESS PERIOD   2
     2 TOTAL ITERATIONS
     1 CALLS TO GCG PACKAGE FOR TRANSPORT TIME STEP 166 IN FLOW TIME STEP   1 STRESS PERIOD   2
     2 TOTAL ITERATIONS
     1 CALLS TO GCG PACKAGE FOR TRANSPORT TIME STEP 167 IN FLOW TIME STEP   1 STRESS PERIOD   2
     2 TOTAL ITERATIONS
     1 CALLS TO GCG PACKAGE FOR TRANSPORT TIME STEP 168 IN FLOW TIME STEP   1 STRESS PERIOD   2
     2 TOTAL ITERATIONS
     1 CALLS TO GCG PACKAGE FOR TRANSPORT TIME STEP 169 IN FLOW TIME STEP   1 STRESS PERIOD   2
     2 TOTAL ITERATIONS
     1 CALLS TO GCG PACKAGE FOR TRANSPORT TIME STEP 170 IN FLOW TIME STEP   1 STRESS PERIOD   2
     2 TOTAL ITERATIONS
     1 CALLS TO GCG PACKAGE FOR TRANSPORT TIME STEP 171 IN FLOW TIME STEP   1 STRESS PERIOD   2
     2 TOTAL ITERATIONS
     1 CALLS TO GCG PACKAGE FOR TRANSPORT TIME STEP 172 IN FLOW TIME STEP   1 STRESS PERIOD   2
     2 TOTAL ITERATIONS
     1 CALLS TO GCG PACKAGE FOR TRANSPORT TIME STEP 173 IN FLOW TIME STEP   1 STRESS PERIOD   2
     2 TOTAL ITERATIONS
     1 CALLS TO GCG PACKAGE FOR TRANSPORT TIME STEP 174 IN FLOW TIME STEP   1 STRESS PERIOD   2
     2 TOTAL ITERATIONS
     1 CALLS TO GCG PACKAGE FOR TRANSPORT TIME STEP 175 IN FLOW TIME STEP   1 STRESS PERIOD   2
     2 TOTAL ITERATIONS
     1 CALLS TO GCG PACKAGE FOR TRANSPORT TIME STEP 176 IN FLOW TIME STEP   1 STRESS PERIOD   2
     2 TOTAL ITERATIONS
     1 CALLS TO GCG PACKAGE FOR TRANSPORT TIME STEP 177 IN FLOW TIME STEP   1 STRESS PERIOD   2
     2 TOTAL ITERATIONS
     1 CALLS TO GCG PACKAGE FOR TRANSPORT TIME STEP 178 IN FLOW TIME STEP   1 STRESS PERIOD   2
     2 TOTAL ITERATIONS
     1 CALLS TO GCG PACKAGE FOR TRANSPORT TIME STEP 179 IN FLOW TIME STEP   1 STRESS PERIOD   2
     2 TOTAL ITERATIONS
     1 CALLS TO GCG PACKAGE FOR TRANSPORT TIME STEP 180 IN FLOW TIME STEP   1 STRESS PERIOD   2
     2 TOTAL ITERATIONS
     1 CALLS TO GCG PACKAGE FOR TRANSPORT TIME STEP 181 IN FLOW TIME STEP   1 STRESS PERIOD   2
     2 TOTAL ITERATIONS
     1 CALLS TO GCG PACKAGE FOR TRANSPORT TIME STEP 182 IN FLOW TIME STEP   1 STRESS PERIOD   2
     2 TOTAL ITERATIONS
     1 CALLS TO GCG PACKAGE FOR TRANSPORT TIME STEP 183 IN FLOW TIME STEP   1 STRESS PERIOD   2
     2 TOTAL ITERATIONS
     1 CALLS TO GCG PACKAGE FOR TRANSPORT TIME STEP 184 IN FLOW TIME STEP   1 STRESS PERIOD   2
     2 TOTAL ITERATIONS
     1 CALLS TO GCG PACKAGE FOR TRANSPORT TIME STEP 185 IN FLOW TIME STEP   1 STRESS PERIOD   2
     2 TOTAL ITERATIONS
     1 CALLS TO GCG PACKAGE FOR TRANSPORT TIME STEP 186 IN FLOW TIME STEP   1 STRESS PERIOD   2
     2 TOTAL ITERATIONS
     1 CALLS TO GCG PACKAGE FOR TRANSPORT TIME STEP 187 IN FLOW TIME STEP   1 STRESS PERIOD   2
     2 TOTAL ITERATIONS
     1 CALLS TO GCG PACKAGE FOR TRANSPORT TIME STEP 188 IN FLOW TIME STEP   1 STRESS PERIOD   2
     2 TOTAL ITERATIONS
     1 CALLS TO GCG PACKAGE FOR TRANSPORT TIME STEP 189 IN FLOW TIME STEP   1 STRESS PERIOD   2
     2 TOTAL ITERATIONS
     1 CALLS TO GCG PACKAGE FOR TRANSPORT TIME STEP 190 IN FLOW TIME STEP   1 STRESS PERIOD   2
     2 TOTAL ITERATIONS
     1 CALLS TO GCG PACKAGE FOR TRANSPORT TIME STEP 191 IN FLOW TIME STEP   1 STRESS PERIOD   2
     2 TOTAL ITERATIONS
     1 CALLS TO GCG PACKAGE FOR TRANSPORT TIME STEP 192 IN FLOW TIME STEP   1 STRESS PERIOD   2
     2 TOTAL ITERATIONS
     1 CALLS TO GCG PACKAGE FOR TRANSPORT TIME STEP 193 IN FLOW TIME STEP   1 STRESS PERIOD   2
     2 TOTAL ITERATIONS
     1 CALLS TO GCG PACKAGE FOR TRANSPORT TIME STEP 194 IN FLOW TIME STEP   1 STRESS PERIOD   2
     2 TOTAL ITERATIONS
     1 CALLS TO GCG PACKAGE FOR TRANSPORT TIME STEP 195 IN FLOW TIME STEP   1 STRESS PERIOD   2
     2 TOTAL ITERATIONS
     1 CALLS TO GCG PACKAGE FOR TRANSPORT TIME STEP 196 IN FLOW TIME STEP   1 STRESS PERIOD   2
     2 TOTAL ITERATIONS
     1 CALLS TO GCG PACKAGE FOR TRANSPORT TIME STEP 197 IN FLOW TIME STEP   1 STRESS PERIOD   2
     2 TOTAL ITERATIONS
     1 CALLS TO GCG PACKAGE FOR TRANSPORT TIME STEP 198 IN FLOW TIME STEP   1 STRESS PERIOD   2
     2 TOTAL ITERATIONS
     1 CALLS TO GCG PACKAGE FOR TRANSPORT TIME STEP 199 IN FLOW TIME STEP   1 STRESS PERIOD   2
     2 TOTAL ITERATIONS
     1 CALLS TO GCG PACKAGE FOR TRANSPORT TIME STEP 200 IN FLOW TIME STEP   1 STRESS PERIOD   2
     2 TOTAL ITERATIONS
     1 CALLS TO GCG PACKAGE FOR TRANSPORT TIME STEP 201 IN FLOW TIME STEP   1 STRESS PERIOD   2
     2 TOTAL ITERATIONS
     1 CALLS TO GCG PACKAGE FOR TRANSPORT TIME STEP 202 IN FLOW TIME STEP   1 STRESS PERIOD   2
     2 TOTAL ITERATIONS
     1 CALLS TO GCG PACKAGE FOR TRANSPORT TIME STEP 203 IN FLOW TIME STEP   1 STRESS PERIOD   2
     2 TOTAL ITERATIONS
     1 CALLS TO GCG PACKAGE FOR TRANSPORT TIME STEP 204 IN FLOW TIME STEP   1 STRESS PERIOD   2
     2 TOTAL ITERATIONS
     1 CALLS TO GCG PACKAGE FOR TRANSPORT TIME STEP 205 IN FLOW TIME STEP   1 STRESS PERIOD   2
     2 TOTAL ITERATIONS
     1 CALLS TO GCG PACKAGE FOR TRANSPORT TIME STEP 206 IN FLOW TIME STEP   1 STRESS PERIOD   2
     2 TOTAL ITERATIONS
     1 CALLS TO GCG PACKAGE FOR TRANSPORT TIME STEP 207 IN FLOW TIME STEP   1 STRESS PERIOD   2
     2 TOTAL ITERATIONS
     1 CALLS TO GCG PACKAGE FOR TRANSPORT TIME STEP 208 IN FLOW TIME STEP   1 STRESS PERIOD   2
     2 TOTAL ITERATIONS
     1 CALLS TO GCG PACKAGE FOR TRANSPORT TIME STEP 209 IN FLOW TIME STEP   1 STRESS PERIOD   2
     2 TOTAL ITERATIONS
     1 CALLS TO GCG PACKAGE FOR TRANSPORT TIME STEP 210 IN FLOW TIME STEP   1 STRESS PERIOD   2
     2 TOTAL ITERATIONS
     1 CALLS TO GCG PACKAGE FOR TRANSPORT TIME STEP 211 IN FLOW TIME STEP   1 STRESS PERIOD   2
     2 TOTAL ITERATIONS
     1 CALLS TO GCG PACKAGE FOR TRANSPORT TIME STEP 212 IN FLOW TIME STEP   1 STRESS PERIOD   2
     2 TOTAL ITERATIONS
     1 CALLS TO GCG PACKAGE FOR TRANSPORT TIME STEP 213 IN FLOW TIME STEP   1 STRESS PERIOD   2
     2 TOTAL ITERATIONS
     1 CALLS TO GCG PACKAGE FOR TRANSPORT TIME STEP 214 IN FLOW TIME STEP   1 STRESS PERIOD   2
     2 TOTAL ITERATIONS
     1 CALLS TO GCG PACKAGE FOR TRANSPORT TIME STEP 215 IN FLOW TIME STEP   1 STRESS PERIOD   2
     2 TOTAL ITERATIONS
     1 CALLS TO GCG PACKAGE FOR TRANSPORT TIME STEP 216 IN FLOW TIME STEP   1 STRESS PERIOD   2
     2 TOTAL ITERATIONS
     1 CALLS TO GCG PACKAGE FOR TRANSPORT TIME STEP 217 IN FLOW TIME STEP   1 STRESS PERIOD   2
     2 TOTAL ITERATIONS
     1 CALLS TO GCG PACKAGE FOR TRANSPORT TIME STEP 218 IN FLOW TIME STEP   1 STRESS PERIOD   2
     2 TOTAL ITERATIONS
     1 CALLS TO GCG PACKAGE FOR TRANSPORT TIME STEP 219 IN FLOW TIME STEP   1 STRESS PERIOD   2
     2 TOTAL ITERATIONS
     1 CALLS TO GCG PACKAGE FOR TRANSPORT TIME STEP 220 IN FLOW TIME STEP   1 STRESS PERIOD   2
     2 TOTAL ITERATIONS
     1 CALLS TO GCG PACKAGE FOR TRANSPORT TIME STEP 221 IN FLOW TIME STEP   1 STRESS PERIOD   2
     2 TOTAL ITERATIONS
     1 CALLS TO GCG PACKAGE FOR TRANSPORT TIME STEP 222 IN FLOW TIME STEP   1 STRESS PERIOD   2
     2 TOTAL ITERATIONS
     1 CALLS TO GCG PACKAGE FOR TRANSPORT TIME STEP 223 IN FLOW TIME STEP   1 STRESS PERIOD   2
     2 TOTAL ITERATIONS
     1 CALLS TO GCG PACKAGE FOR TRANSPORT TIME STEP 224 IN FLOW TIME STEP   1 STRESS PERIOD   2
     2 TOTAL ITERATIONS
     1 CALLS TO GCG PACKAGE FOR TRANSPORT TIME STEP 225 IN FLOW TIME STEP   1 STRESS PERIOD   2
     2 TOTAL ITERATIONS
     1 CALLS TO GCG PACKAGE FOR TRANSPORT TIME STEP 226 IN FLOW TIME STEP   1 STRESS PERIOD   2
     2 TOTAL ITERATIONS
     1 CALLS TO GCG PACKAGE FOR TRANSPORT TIME STEP 227 IN FLOW TIME STEP   1 STRESS PERIOD   2
     2 TOTAL ITERATIONS
     1 CALLS TO GCG PACKAGE FOR TRANSPORT TIME STEP 228 IN FLOW TIME STEP   1 STRESS PERIOD   2
     2 TOTAL ITERATIONS
     1 CALLS TO GCG PACKAGE FOR TRANSPORT TIME STEP 229 IN FLOW TIME STEP   1 STRESS PERIOD   2
     2 TOTAL ITERATIONS
     1 CALLS TO GCG PACKAGE FOR TRANSPORT TIME STEP 230 IN FLOW TIME STEP   1 STRESS PERIOD   2
     2 TOTAL ITERATIONS
     1 CALLS TO GCG PACKAGE FOR TRANSPORT TIME STEP 231 IN FLOW TIME STEP   1 STRESS PERIOD   2
     2 TOTAL ITERATIONS
     1 CALLS TO GCG PACKAGE FOR TRANSPORT TIME STEP 232 IN FLOW TIME STEP   1 STRESS PERIOD   2
     2 TOTAL ITERATIONS
     1 CALLS TO GCG PACKAGE FOR TRANSPORT TIME STEP 233 IN FLOW TIME STEP   1 STRESS PERIOD   2
     2 TOTAL ITERATIONS
     1 CALLS TO GCG PACKAGE FOR TRANSPORT TIME STEP 234 IN FLOW TIME STEP   1 STRESS PERIOD   2
     2 TOTAL ITERATIONS
     1 CALLS TO GCG PACKAGE FOR TRANSPORT TIME STEP 235 IN FLOW TIME STEP   1 STRESS PERIOD   2
     2 TOTAL ITERATIONS
     1 CALLS TO GCG PACKAGE FOR TRANSPORT TIME STEP 236 IN FLOW TIME STEP   1 STRESS PERIOD   2
     2 TOTAL ITERATIONS
     1 CALLS TO GCG PACKAGE FOR TRANSPORT TIME STEP 237 IN FLOW TIME STEP   1 STRESS PERIOD   2
     2 TOTAL ITERATIONS
     1 CALLS TO GCG PACKAGE FOR TRANSPORT TIME STEP 238 IN FLOW TIME STEP   1 STRESS PERIOD   2
     2 TOTAL ITERATIONS
     1 CALLS TO GCG PACKAGE FOR TRANSPORT TIME STEP 239 IN FLOW TIME STEP   1 STRESS PERIOD   2
     2 TOTAL ITERATIONS
     1 CALLS TO GCG PACKAGE FOR TRANSPORT TIME STEP 240 IN FLOW TIME STEP   1 STRESS PERIOD   2
     2 TOTAL ITERATIONS
     1 CALLS TO GCG PACKAGE FOR TRANSPORT TIME STEP 241 IN FLOW TIME STEP   1 STRESS PERIOD   2
     2 TOTAL ITERATIONS
     1 CALLS TO GCG PACKAGE FOR TRANSPORT TIME STEP 242 IN FLOW TIME STEP   1 STRESS PERIOD   2
     2 TOTAL ITERATIONS
     1 CALLS TO GCG PACKAGE FOR TRANSPORT TIME STEP 243 IN FLOW TIME STEP   1 STRESS PERIOD   2
     2 TOTAL ITERATIONS
     1 CALLS TO GCG PACKAGE FOR TRANSPORT TIME STEP 244 IN FLOW TIME STEP   1 STRESS PERIOD   2
     2 TOTAL ITERATIONS
     1 CALLS TO GCG PACKAGE FOR TRANSPORT TIME STEP 245 IN FLOW TIME STEP   1 STRESS PERIOD   2
     2 TOTAL ITERATIONS
     1 CALLS TO GCG PACKAGE FOR TRANSPORT TIME STEP 246 IN FLOW TIME STEP   1 STRESS PERIOD   2
     2 TOTAL ITERATIONS
     1 CALLS TO GCG PACKAGE FOR TRANSPORT TIME STEP 247 IN FLOW TIME STEP   1 STRESS PERIOD   2
     2 TOTAL ITERATIONS
     1 CALLS TO GCG PACKAGE FOR TRANSPORT TIME STEP 248 IN FLOW TIME STEP   1 STRESS PERIOD   2
     2 TOTAL ITERATIONS
     1 CALLS TO GCG PACKAGE FOR TRANSPORT TIME STEP 249 IN FLOW TIME STEP   1 STRESS PERIOD   2
     2 TOTAL ITERATIONS
     1 CALLS TO GCG PACKAGE FOR TRANSPORT TIME STEP 250 IN FLOW TIME STEP   1 STRESS PERIOD   2
     2 TOTAL ITERATIONS
     1 CALLS TO GCG PACKAGE FOR TRANSPORT TIME STEP 251 IN FLOW TIME STEP   1 STRESS PERIOD   2
     2 TOTAL ITERATIONS
     1 CALLS TO GCG PACKAGE FOR TRANSPORT TIME STEP 252 IN FLOW TIME STEP   1 STRESS PERIOD   2
     2 TOTAL ITERATIONS
     1 CALLS TO GCG PACKAGE FOR TRANSPORT TIME STEP 253 IN FLOW TIME STEP   1 STRESS PERIOD   2
     2 TOTAL ITERATIONS
     1 CALLS TO GCG PACKAGE FOR TRANSPORT TIME STEP 254 IN FLOW TIME STEP   1 STRESS PERIOD   2
     2 TOTAL ITERATIONS
     1 CALLS TO GCG PACKAGE FOR TRANSPORT TIME STEP 255 IN FLOW TIME STEP   1 STRESS PERIOD   2
     2 TOTAL ITERATIONS
     1 CALLS TO GCG PACKAGE FOR TRANSPORT TIME STEP 256 IN FLOW TIME STEP   1 STRESS PERIOD   2
     2 TOTAL ITERATIONS
     1 CALLS TO GCG PACKAGE FOR TRANSPORT TIME STEP 257 IN FLOW TIME STEP   1 STRESS PERIOD   2
     2 TOTAL ITERATIONS
     1 CALLS TO GCG PACKAGE FOR TRANSPORT TIME STEP 258 IN FLOW TIME STEP   1 STRESS PERIOD   2
     2 TOTAL ITERATIONS
     1 CALLS TO GCG PACKAGE FOR TRANSPORT TIME STEP 259 IN FLOW TIME STEP   1 STRESS PERIOD   2
     2 TOTAL ITERATIONS
     1 CALLS TO GCG PACKAGE FOR TRANSPORT TIME STEP 260 IN FLOW TIME STEP   1 STRESS PERIOD   2
     2 TOTAL ITERATIONS
     1 CALLS TO GCG PACKAGE FOR TRANSPORT TIME STEP 261 IN FLOW TIME STEP   1 STRESS PERIOD   2
     2 TOTAL ITERATIONS
     1 CALLS TO GCG PACKAGE FOR TRANSPORT TIME STEP 262 IN FLOW TIME STEP   1 STRESS PERIOD   2
     2 TOTAL ITERATIONS
     1 CALLS TO GCG PACKAGE FOR TRANSPORT TIME STEP 263 IN FLOW TIME STEP   1 STRESS PERIOD   2
     2 TOTAL ITERATIONS
     1 CALLS TO GCG PACKAGE FOR TRANSPORT TIME STEP 264 IN FLOW TIME STEP   1 STRESS PERIOD   2
     2 TOTAL ITERATIONS
     1 CALLS TO GCG PACKAGE FOR TRANSPORT TIME STEP 265 IN FLOW TIME STEP   1 STRESS PERIOD   2
     2 TOTAL ITERATIONS
     1 CALLS TO GCG PACKAGE FOR TRANSPORT TIME STEP 266 IN FLOW TIME STEP   1 STRESS PERIOD   2
     2 TOTAL ITERATIONS
     1 CALLS TO GCG PACKAGE FOR TRANSPORT TIME STEP 267 IN FLOW TIME STEP   1 STRESS PERIOD   2
     2 TOTAL ITERATIONS
     1 CALLS TO GCG PACKAGE FOR TRANSPORT TIME STEP 268 IN FLOW TIME STEP   1 STRESS PERIOD   2
     2 TOTAL ITERATIONS
     1 CALLS TO GCG PACKAGE FOR TRANSPORT TIME STEP 269 IN FLOW TIME STEP   1 STRESS PERIOD   2
     2 TOTAL ITERATIONS
     1 CALLS TO GCG PACKAGE FOR TRANSPORT TIME STEP 270 IN FLOW TIME STEP   1 STRESS PERIOD   2
     2 TOTAL ITERATIONS
     1 CALLS TO GCG PACKAGE FOR TRANSPORT TIME STEP 271 IN FLOW TIME STEP   1 STRESS PERIOD   2
     2 TOTAL ITERATIONS
     1 CALLS TO GCG PACKAGE FOR TRANSPORT TIME STEP 272 IN FLOW TIME STEP   1 STRESS PERIOD   2
     2 TOTAL ITERATIONS
     1 CALLS TO GCG PACKAGE FOR TRANSPORT TIME STEP 273 IN FLOW TIME STEP   1 STRESS PERIOD   2
     2 TOTAL ITERATIONS
     1 CALLS TO GCG PACKAGE FOR TRANSPORT TIME STEP 274 IN FLOW TIME STEP   1 STRESS PERIOD   2
     2 TOTAL ITERATIONS
     1 CALLS TO GCG PACKAGE FOR TRANSPORT TIME STEP 275 IN FLOW TIME STEP   1 STRESS PERIOD   2
     2 TOTAL ITERATIONS
     1 CALLS TO GCG PACKAGE FOR TRANSPORT TIME STEP 276 IN FLOW TIME STEP   1 STRESS PERIOD   2
     2 TOTAL ITERATIONS
     1 CALLS TO GCG PACKAGE FOR TRANSPORT TIME STEP 277 IN FLOW TIME STEP   1 STRESS PERIOD   2
     2 TOTAL ITERATIONS
     1 CALLS TO GCG PACKAGE FOR TRANSPORT TIME STEP 278 IN FLOW TIME STEP   1 STRESS PERIOD   2
     2 TOTAL ITERATIONS
     1 CALLS TO GCG PACKAGE FOR TRANSPORT TIME STEP 279 IN FLOW TIME STEP   1 STRESS PERIOD   2
     2 TOTAL ITERATIONS
     1 CALLS TO GCG PACKAGE FOR TRANSPORT TIME STEP 280 IN FLOW TIME STEP   1 STRESS PERIOD   2
     2 TOTAL ITERATIONS
     1 CALLS TO GCG PACKAGE FOR TRANSPORT TIME STEP 281 IN FLOW TIME STEP   1 STRESS PERIOD   2
     2 TOTAL ITERATIONS
     1 CALLS TO GCG PACKAGE FOR TRANSPORT TIME STEP 282 IN FLOW TIME STEP   1 STRESS PERIOD   2
     2 TOTAL ITERATIONS
     1 CALLS TO GCG PACKAGE FOR TRANSPORT TIME STEP 283 IN FLOW TIME STEP   1 STRESS PERIOD   2
     2 TOTAL ITERATIONS
     1 CALLS TO GCG PACKAGE FOR TRANSPORT TIME STEP 284 IN FLOW TIME STEP   1 STRESS PERIOD   2
     2 TOTAL ITERATIONS
     1 CALLS TO GCG PACKAGE FOR TRANSPORT TIME STEP 285 IN FLOW TIME STEP   1 STRESS PERIOD   2
     2 TOTAL ITERATIONS
     1 CALLS TO GCG PACKAGE FOR TRANSPORT TIME STEP 286 IN FLOW TIME STEP   1 STRESS PERIOD   2
     2 TOTAL ITERATIONS
     1 CALLS TO GCG PACKAGE FOR TRANSPORT TIME STEP 287 IN FLOW TIME STEP   1 STRESS PERIOD   2
     2 TOTAL ITERATIONS
     1 CALLS TO GCG PACKAGE FOR TRANSPORT TIME STEP 288 IN FLOW TIME STEP   1 STRESS PERIOD   2
     2 TOTAL ITERATIONS
     1 CALLS TO GCG PACKAGE FOR TRANSPORT TIME STEP 289 IN FLOW TIME STEP   1 STRESS PERIOD   2
     2 TOTAL ITERATIONS
     1 CALLS TO GCG PACKAGE FOR TRANSPORT TIME STEP 290 IN FLOW TIME STEP   1 STRESS PERIOD   2
     2 TOTAL ITERATIONS
     1 CALLS TO GCG PACKAGE FOR TRANSPORT TIME STEP 291 IN FLOW TIME STEP   1 STRESS PERIOD   2
     2 TOTAL ITERATIONS
     1 CALLS TO GCG PACKAGE FOR TRANSPORT TIME STEP 292 IN FLOW TIME STEP   1 STRESS PERIOD   2
     2 TOTAL ITERATIONS
     1 CALLS TO GCG PACKAGE FOR TRANSPORT TIME STEP 293 IN FLOW TIME STEP   1 STRESS PERIOD   2
     2 TOTAL ITERATIONS
     1 CALLS TO GCG PACKAGE FOR TRANSPORT TIME STEP 294 IN FLOW TIME STEP   1 STRESS PERIOD   2
     2 TOTAL ITERATIONS
     1 CALLS TO GCG PACKAGE FOR TRANSPORT TIME STEP 295 IN FLOW TIME STEP   1 STRESS PERIOD   2
     2 TOTAL ITERATIONS
     1 CALLS TO GCG PACKAGE FOR TRANSPORT TIME STEP 296 IN FLOW TIME STEP   1 STRESS PERIOD   2
     2 TOTAL ITERATIONS
     1 CALLS TO GCG PACKAGE FOR TRANSPORT TIME STEP 297 IN FLOW TIME STEP   1 STRESS PERIOD   2
     2 TOTAL ITERATIONS
     1 CALLS TO GCG PACKAGE FOR TRANSPORT TIME STEP 298 IN FLOW TIME STEP   1 STRESS PERIOD   2
     2 TOTAL ITERATIONS
     1 CALLS TO GCG PACKAGE FOR TRANSPORT TIME STEP 299 IN FLOW TIME STEP   1 STRESS PERIOD   2
     2 TOTAL ITERATIONS
     1 CALLS TO GCG PACKAGE FOR TRANSPORT TIME STEP 300 IN FLOW TIME STEP   1 STRESS PERIOD   2
     2 TOTAL ITERATIONS
     1 CALLS TO GCG PACKAGE FOR TRANSPORT TIME STEP 301 IN FLOW TIME STEP   1 STRESS PERIOD   2
     2 TOTAL ITERATIONS
     1 CALLS TO GCG PACKAGE FOR TRANSPORT TIME STEP 302 IN FLOW TIME STEP   1 STRESS PERIOD   2
     2 TOTAL ITERATIONS
     1 CALLS TO GCG PACKAGE FOR TRANSPORT TIME STEP 303 IN FLOW TIME STEP   1 STRESS PERIOD   2
     2 TOTAL ITERATIONS
     1 CALLS TO GCG PACKAGE FOR TRANSPORT TIME STEP 304 IN FLOW TIME STEP   1 STRESS PERIOD   2
     2 TOTAL ITERATIONS
     1 CALLS TO GCG PACKAGE FOR TRANSPORT TIME STEP 305 IN FLOW TIME STEP   1 STRESS PERIOD   2
     2 TOTAL ITERATIONS
     1 CALLS TO GCG PACKAGE FOR TRANSPORT TIME STEP 306 IN FLOW TIME STEP   1 STRESS PERIOD   2
     2 TOTAL ITERATIONS
     1 CALLS TO GCG PACKAGE FOR TRANSPORT TIME STEP 307 IN FLOW TIME STEP   1 STRESS PERIOD   2
     2 TOTAL ITERATIONS
     1 CALLS TO GCG PACKAGE FOR TRANSPORT TIME STEP 308 IN FLOW TIME STEP   1 STRESS PERIOD   2
     2 TOTAL ITERATIONS
     1 CALLS TO GCG PACKAGE FOR TRANSPORT TIME STEP 309 IN FLOW TIME STEP   1 STRESS PERIOD   2
     2 TOTAL ITERATIONS
     1 CALLS TO GCG PACKAGE FOR TRANSPORT TIME STEP 310 IN FLOW TIME STEP   1 STRESS PERIOD   2
     2 TOTAL ITERATIONS
     1 CALLS TO GCG PACKAGE FOR TRANSPORT TIME STEP 311 IN FLOW TIME STEP   1 STRESS PERIOD   2
     2 TOTAL ITERATIONS
     1 CALLS TO GCG PACKAGE FOR TRANSPORT TIME STEP 312 IN FLOW TIME STEP   1 STRESS PERIOD   2
     2 TOTAL ITERATIONS
     1 CALLS TO GCG PACKAGE FOR TRANSPORT TIME STEP 313 IN FLOW TIME STEP   1 STRESS PERIOD   2
     2 TOTAL ITERATIONS
     1 CALLS TO GCG PACKAGE FOR TRANSPORT TIME STEP 314 IN FLOW TIME STEP   1 STRESS PERIOD   2
     2 TOTAL ITERATIONS
     1 CALLS TO GCG PACKAGE FOR TRANSPORT TIME STEP 315 IN FLOW TIME STEP   1 STRESS PERIOD   2
     2 TOTAL ITERATIONS
     1 CALLS TO GCG PACKAGE FOR TRANSPORT TIME STEP 316 IN FLOW TIME STEP   1 STRESS PERIOD   2
     2 TOTAL ITERATIONS
     1 CALLS TO GCG PACKAGE FOR TRANSPORT TIME STEP 317 IN FLOW TIME STEP   1 STRESS PERIOD   2
     2 TOTAL ITERATIONS
     1 CALLS TO GCG PACKAGE FOR TRANSPORT TIME STEP 318 IN FLOW TIME STEP   1 STRESS PERIOD   2
     2 TOTAL ITERATIONS
     1 CALLS TO GCG PACKAGE FOR TRANSPORT TIME STEP 319 IN FLOW TIME STEP   1 STRESS PERIOD   2
     2 TOTAL ITERATIONS
     1 CALLS TO GCG PACKAGE FOR TRANSPORT TIME STEP 320 IN FLOW TIME STEP   1 STRESS PERIOD   2
     2 TOTAL ITERATIONS
     1 CALLS TO GCG PACKAGE FOR TRANSPORT TIME STEP 321 IN FLOW TIME STEP   1 STRESS PERIOD   2
     2 TOTAL ITERATIONS
     1 CALLS TO GCG PACKAGE FOR TRANSPORT TIME STEP 322 IN FLOW TIME STEP   1 STRESS PERIOD   2
     2 TOTAL ITERATIONS
     1 CALLS TO GCG PACKAGE FOR TRANSPORT TIME STEP 323 IN FLOW TIME STEP   1 STRESS PERIOD   2
     2 TOTAL ITERATIONS
     1 CALLS TO GCG PACKAGE FOR TRANSPORT TIME STEP 324 IN FLOW TIME STEP   1 STRESS PERIOD   2
     2 TOTAL ITERATIONS
     1 CALLS TO GCG PACKAGE FOR TRANSPORT TIME STEP 325 IN FLOW TIME STEP   1 STRESS PERIOD   2
     2 TOTAL ITERATIONS
     1 CALLS TO GCG PACKAGE FOR TRANSPORT TIME STEP 326 IN FLOW TIME STEP   1 STRESS PERIOD   2
     2 TOTAL ITERATIONS
     1 CALLS TO GCG PACKAGE FOR TRANSPORT TIME STEP 327 IN FLOW TIME STEP   1 STRESS PERIOD   2
     2 TOTAL ITERATIONS
     1 CALLS TO GCG PACKAGE FOR TRANSPORT TIME STEP 328 IN FLOW TIME STEP   1 STRESS PERIOD   2
     2 TOTAL ITERATIONS
     1 CALLS TO GCG PACKAGE FOR TRANSPORT TIME STEP 329 IN FLOW TIME STEP   1 STRESS PERIOD   2
     2 TOTAL ITERATIONS
     1 CALLS TO GCG PACKAGE FOR TRANSPORT TIME STEP 330 IN FLOW TIME STEP   1 STRESS PERIOD   2
     2 TOTAL ITERATIONS
     1 CALLS TO GCG PACKAGE FOR TRANSPORT TIME STEP 331 IN FLOW TIME STEP   1 STRESS PERIOD   2
     2 TOTAL ITERATIONS
     1 CALLS TO GCG PACKAGE FOR TRANSPORT TIME STEP 332 IN FLOW TIME STEP   1 STRESS PERIOD   2
     2 TOTAL ITERATIONS
     1 CALLS TO GCG PACKAGE FOR TRANSPORT TIME STEP 333 IN FLOW TIME STEP   1 STRESS PERIOD   2
     2 TOTAL ITERATIONS
     1 CALLS TO GCG PACKAGE FOR TRANSPORT TIME STEP 334 IN FLOW TIME STEP   1 STRESS PERIOD   2
     2 TOTAL ITERATIONS
     1 CALLS TO GCG PACKAGE FOR TRANSPORT TIME STEP 335 IN FLOW TIME STEP   1 STRESS PERIOD   2
     2 TOTAL ITERATIONS
     1 CALLS TO GCG PACKAGE FOR TRANSPORT TIME STEP 336 IN FLOW TIME STEP   1 STRESS PERIOD   2
     2 TOTAL ITERATIONS
     1 CALLS TO GCG PACKAGE FOR TRANSPORT TIME STEP 337 IN FLOW TIME STEP   1 STRESS PERIOD   2
     2 TOTAL ITERATIONS
     1 CALLS TO GCG PACKAGE FOR TRANSPORT TIME STEP 338 IN FLOW TIME STEP   1 STRESS PERIOD   2
     2 TOTAL ITERATIONS
     1 CALLS TO GCG PACKAGE FOR TRANSPORT TIME STEP 339 IN FLOW TIME STEP   1 STRESS PERIOD   2
     2 TOTAL ITERATIONS
     1 CALLS TO GCG PACKAGE FOR TRANSPORT TIME STEP 340 IN FLOW TIME STEP   1 STRESS PERIOD   2
     2 TOTAL ITERATIONS
     1 CALLS TO GCG PACKAGE FOR TRANSPORT TIME STEP 341 IN FLOW TIME STEP   1 STRESS PERIOD   2
     2 TOTAL ITERATIONS
     1 CALLS TO GCG PACKAGE FOR TRANSPORT TIME STEP 342 IN FLOW TIME STEP   1 STRESS PERIOD   2
     2 TOTAL ITERATIONS
     1 CALLS TO GCG PACKAGE FOR TRANSPORT TIME STEP 343 IN FLOW TIME STEP   1 STRESS PERIOD   2
     2 TOTAL ITERATIONS
     1 CALLS TO GCG PACKAGE FOR TRANSPORT TIME STEP 344 IN FLOW TIME STEP   1 STRESS PERIOD   2
     2 TOTAL ITERATIONS
     1 CALLS TO GCG PACKAGE FOR TRANSPORT TIME STEP 345 IN FLOW TIME STEP   1 STRESS PERIOD   2
     2 TOTAL ITERATIONS
     1 CALLS TO GCG PACKAGE FOR TRANSPORT TIME STEP 346 IN FLOW TIME STEP   1 STRESS PERIOD   2
     2 TOTAL ITERATIONS
     1 CALLS TO GCG PACKAGE FOR TRANSPORT TIME STEP 347 IN FLOW TIME STEP   1 STRESS PERIOD   2
     2 TOTAL ITERATIONS
     1 CALLS TO GCG PACKAGE FOR TRANSPORT TIME STEP 348 IN FLOW TIME STEP   1 STRESS PERIOD   2
     2 TOTAL ITERATIONS
     1 CALLS TO GCG PACKAGE FOR TRANSPORT TIME STEP 349 IN FLOW TIME STEP   1 STRESS PERIOD   2
     2 TOTAL ITERATIONS
[...]
     2 TOTAL ITERATIONS
     1 CALLS TO GCG PACKAGE FOR TRANSPORT TIME STEP1217 IN FLOW TIME STEP   1 STRESS PERIOD   2
     2 TOTAL ITERATIONS
     1 CALLS TO GCG PACKAGE FOR TRANSPORT TIME STEP1218 IN FLOW TIME STEP   1 STRESS PERIOD   2
     2 TOTAL ITERATIONS
     1 CALLS TO GCG PACKAGE FOR TRANSPORT TIME STEP1219 IN FLOW TIME STEP   1 STRESS PERIOD   2
     2 TOTAL ITERATIONS
     1 CALLS TO GCG PACKAGE FOR TRANSPORT TIME STEP1220 IN FLOW TIME STEP   1 STRESS PERIOD   2
     2 TOTAL ITERATIONS
     1 CALLS TO GCG PACKAGE FOR TRANSPORT TIME STEP1221 IN FLOW TIME STEP   1 STRESS PERIOD   2
     2 TOTAL ITERATIONS
     1 CALLS TO GCG PACKAGE FOR TRANSPORT TIME STEP1222 IN FLOW TIME STEP   1 STRESS PERIOD   2
     2 TOTAL ITERATIONS
     1 CALLS TO GCG PACKAGE FOR TRANSPORT TIME STEP1223 IN FLOW TIME STEP   1 STRESS PERIOD   2
     2 TOTAL ITERATIONS
     1 CALLS TO GCG PACKAGE FOR TRANSPORT TIME STEP1224 IN FLOW TIME STEP   1 STRESS PERIOD   2
     2 TOTAL ITERATIONS
     1 CALLS TO GCG PACKAGE FOR TRANSPORT TIME STEP1225 IN FLOW TIME STEP   1 STRESS PERIOD   2
     2 TOTAL ITERATIONS
     1 CALLS TO GCG PACKAGE FOR TRANSPORT TIME STEP1226 IN FLOW TIME STEP   1 STRESS PERIOD   2
     2 TOTAL ITERATIONS
     1 CALLS TO GCG PACKAGE FOR TRANSPORT TIME STEP1227 IN FLOW TIME STEP   1 STRESS PERIOD   2
     2 TOTAL ITERATIONS
     1 CALLS TO GCG PACKAGE FOR TRANSPORT TIME STEP1228 IN FLOW TIME STEP   1 STRESS PERIOD   2
     2 TOTAL ITERATIONS
     1 CALLS TO GCG PACKAGE FOR TRANSPORT TIME STEP1229 IN FLOW TIME STEP   1 STRESS PERIOD   2
     2 TOTAL ITERATIONS
     1 CALLS TO GCG PACKAGE FOR TRANSPORT TIME STEP1230 IN FLOW TIME STEP   1 STRESS PERIOD   2
     2 TOTAL ITERATIONS
     1 CALLS TO GCG PACKAGE FOR TRANSPORT TIME STEP1231 IN FLOW TIME STEP   1 STRESS PERIOD   2
     2 TOTAL ITERATIONS
     1 CALLS TO GCG PACKAGE FOR TRANSPORT TIME STEP1232 IN FLOW TIME STEP   1 STRESS PERIOD   2
     2 TOTAL ITERATIONS
     1 CALLS TO GCG PACKAGE FOR TRANSPORT TIME STEP1233 IN FLOW TIME STEP   1 STRESS PERIOD   2
     2 TOTAL ITERATIONS
     1 CALLS TO GCG PACKAGE FOR TRANSPORT TIME STEP1234 IN FLOW TIME STEP   1 STRESS PERIOD   2
     2 TOTAL ITERATIONS
     1 CALLS TO GCG PACKAGE FOR TRANSPORT TIME STEP1235 IN FLOW TIME STEP   1 STRESS PERIOD   2
     2 TOTAL ITERATIONS
     1 CALLS TO GCG PACKAGE FOR TRANSPORT TIME STEP1236 IN FLOW TIME STEP   1 STRESS PERIOD   2
     2 TOTAL ITERATIONS
     1 CALLS TO GCG PACKAGE FOR TRANSPORT TIME STEP1237 IN FLOW TIME STEP   1 STRESS PERIOD   2
     2 TOTAL ITERATIONS
     1 CALLS TO GCG PACKAGE FOR TRANSPORT TIME STEP1238 IN FLOW TIME STEP   1 STRESS PERIOD   2
     2 TOTAL ITERATIONS
     1 CALLS TO GCG PACKAGE FOR TRANSPORT TIME STEP1239 IN FLOW TIME STEP   1 STRESS PERIOD   2
     2 TOTAL ITERATIONS
     1 CALLS TO GCG PACKAGE FOR TRANSPORT TIME STEP1240 IN FLOW TIME STEP   1 STRESS PERIOD   2
     2 TOTAL ITERATIONS
     1 CALLS TO GCG PACKAGE FOR TRANSPORT TIME STEP1241 IN FLOW TIME STEP   1 STRESS PERIOD   2
     2 TOTAL ITERATIONS
     1 CALLS TO GCG PACKAGE FOR TRANSPORT TIME STEP1242 IN FLOW TIME STEP   1 STRESS PERIOD   2
     2 TOTAL ITERATIONS
     1 CALLS TO GCG PACKAGE FOR TRANSPORT TIME STEP1243 IN FLOW TIME STEP   1 STRESS PERIOD   2
     2 TOTAL ITERATIONS
     1 CALLS TO GCG PACKAGE FOR TRANSPORT TIME STEP1244 IN FLOW TIME STEP   1 STRESS PERIOD   2
     2 TOTAL ITERATIONS
     1 CALLS TO GCG PACKAGE FOR TRANSPORT TIME STEP1245 IN FLOW TIME STEP   1 STRESS PERIOD   2
     2 TOTAL ITERATIONS
     1 CALLS TO GCG PACKAGE FOR TRANSPORT TIME STEP1246 IN FLOW TIME STEP   1 STRESS PERIOD   2
     2 TOTAL ITERATIONS
     1 CALLS TO GCG PACKAGE FOR TRANSPORT TIME STEP1247 IN FLOW TIME STEP   1 STRESS PERIOD   2
     2 TOTAL ITERATIONS
     1 CALLS TO GCG PACKAGE FOR TRANSPORT TIME STEP1248 IN FLOW TIME STEP   1 STRESS PERIOD   2
     2 TOTAL ITERATIONS
     1 CALLS TO GCG PACKAGE FOR TRANSPORT TIME STEP1249 IN FLOW TIME STEP   1 STRESS PERIOD   2
     2 TOTAL ITERATIONS
     1 CALLS TO GCG PACKAGE FOR TRANSPORT TIME STEP1250 IN FLOW TIME STEP   1 STRESS PERIOD   2
     2 TOTAL ITERATIONS
     1 CALLS TO GCG PACKAGE FOR TRANSPORT TIME STEP1251 IN FLOW TIME STEP   1 STRESS PERIOD   2
     2 TOTAL ITERATIONS
     1 CALLS TO GCG PACKAGE FOR TRANSPORT TIME STEP1252 IN FLOW TIME STEP   1 STRESS PERIOD   2
     2 TOTAL ITERATIONS
     1 CALLS TO GCG PACKAGE FOR TRANSPORT TIME STEP1253 IN FLOW TIME STEP   1 STRESS PERIOD   2
     2 TOTAL ITERATIONS
     1 CALLS TO GCG PACKAGE FOR TRANSPORT TIME STEP1254 IN FLOW TIME STEP   1 STRESS PERIOD   2
     2 TOTAL ITERATIONS
     1 CALLS TO GCG PACKAGE FOR TRANSPORT TIME STEP1255 IN FLOW TIME STEP   1 STRESS PERIOD   2
     2 TOTAL ITERATIONS
     1 CALLS TO GCG PACKAGE FOR TRANSPORT TIME STEP1256 IN FLOW TIME STEP   1 STRESS PERIOD   2
     2 TOTAL ITERATIONS
     1 CALLS TO GCG PACKAGE FOR TRANSPORT TIME STEP1257 IN FLOW TIME STEP   1 STRESS PERIOD   2
     2 TOTAL ITERATIONS
     1 CALLS TO GCG PACKAGE FOR TRANSPORT TIME STEP1258 IN FLOW TIME STEP   1 STRESS PERIOD   2
     2 TOTAL ITERATIONS
     1 CALLS TO GCG PACKAGE FOR TRANSPORT TIME STEP1259 IN FLOW TIME STEP   1 STRESS PERIOD   2
     2 TOTAL ITERATIONS
     1 CALLS TO GCG PACKAGE FOR TRANSPORT TIME STEP1260 IN FLOW TIME STEP   1 STRESS PERIOD   2
     2 TOTAL ITERATIONS
     1 CALLS TO GCG PACKAGE FOR TRANSPORT TIME STEP1261 IN FLOW TIME STEP   1 STRESS PERIOD   2
     2 TOTAL ITERATIONS
     1 CALLS TO GCG PACKAGE FOR TRANSPORT TIME STEP1262 IN FLOW TIME STEP   1 STRESS PERIOD   2
     2 TOTAL ITERATIONS
     1 CALLS TO GCG PACKAGE FOR TRANSPORT TIME STEP1263 IN FLOW TIME STEP   1 STRESS PERIOD   2
     2 TOTAL ITERATIONS
     1 CALLS TO GCG PACKAGE FOR TRANSPORT TIME STEP1264 IN FLOW TIME STEP   1 STRESS PERIOD   2
     2 TOTAL ITERATIONS
     1 CALLS TO GCG PACKAGE FOR TRANSPORT TIME STEP1265 IN FLOW TIME STEP   1 STRESS PERIOD   2
     2 TOTAL ITERATIONS
     1 CALLS TO GCG PACKAGE FOR TRANSPORT TIME STEP1266 IN FLOW TIME STEP   1 STRESS PERIOD   2
     2 TOTAL ITERATIONS
     1 CALLS TO GCG PACKAGE FOR TRANSPORT TIME STEP1267 IN FLOW TIME STEP   1 STRESS PERIOD   2
     2 TOTAL ITERATIONS
     1 CALLS TO GCG PACKAGE FOR TRANSPORT TIME STEP1268 IN FLOW TIME STEP   1 STRESS PERIOD   2
     2 TOTAL ITERATIONS
     1 CALLS TO GCG PACKAGE FOR TRANSPORT TIME STEP1269 IN FLOW TIME STEP   1 STRESS PERIOD   2
     2 TOTAL ITERATIONS
     1 CALLS TO GCG PACKAGE FOR TRANSPORT TIME STEP1270 IN FLOW TIME STEP   1 STRESS PERIOD   2
     2 TOTAL ITERATIONS
     1 CALLS TO GCG PACKAGE FOR TRANSPORT TIME STEP1271 IN FLOW TIME STEP   1 STRESS PERIOD   2
     2 TOTAL ITERATIONS
     1 CALLS TO GCG PACKAGE FOR TRANSPORT TIME STEP1272 IN FLOW TIME STEP   1 STRESS PERIOD   2
     2 TOTAL ITERATIONS
     1 CALLS TO GCG PACKAGE FOR TRANSPORT TIME STEP1273 IN FLOW TIME STEP   1 STRESS PERIOD   2
     2 TOTAL ITERATIONS
     1 CALLS TO GCG PACKAGE FOR TRANSPORT TIME STEP1274 IN FLOW TIME STEP   1 STRESS PERIOD   2
     2 TOTAL ITERATIONS
     1 CALLS TO GCG PACKAGE FOR TRANSPORT TIME STEP1275 IN FLOW TIME STEP   1 STRESS PERIOD   2
     2 TOTAL ITERATIONS
     1 CALLS TO GCG PACKAGE FOR TRANSPORT TIME STEP1276 IN FLOW TIME STEP   1 STRESS PERIOD   2
     2 TOTAL ITERATIONS
     1 CALLS TO GCG PACKAGE FOR TRANSPORT TIME STEP1277 IN FLOW TIME STEP   1 STRESS PERIOD   2
     2 TOTAL ITERATIONS
     1 CALLS TO GCG PACKAGE FOR TRANSPORT TIME STEP1278 IN FLOW TIME STEP   1 STRESS PERIOD   2
     2 TOTAL ITERATIONS
     1 CALLS TO GCG PACKAGE FOR TRANSPORT TIME STEP1279 IN FLOW TIME STEP   1 STRESS PERIOD   2
     2 TOTAL ITERATIONS
     1 CALLS TO GCG PACKAGE FOR TRANSPORT TIME STEP1280 IN FLOW TIME STEP   1 STRESS PERIOD   2
     2 TOTAL ITERATIONS
     1 CALLS TO GCG PACKAGE FOR TRANSPORT TIME STEP1281 IN FLOW TIME STEP   1 STRESS PERIOD   2
     2 TOTAL ITERATIONS
     1 CALLS TO GCG PACKAGE FOR TRANSPORT TIME STEP1282 IN FLOW TIME STEP   1 STRESS PERIOD   2
     2 TOTAL ITERATIONS
     1 CALLS TO GCG PACKAGE FOR TRANSPORT TIME STEP1283 IN FLOW TIME STEP   1 STRESS PERIOD   2
     2 TOTAL ITERATIONS
     1 CALLS TO GCG PACKAGE FOR TRANSPORT TIME STEP1284 IN FLOW TIME STEP   1 STRESS PERIOD   2
     2 TOTAL ITERATIONS
     1 CALLS TO GCG PACKAGE FOR TRANSPORT TIME STEP1285 IN FLOW TIME STEP   1 STRESS PERIOD   2
     2 TOTAL ITERATIONS
     1 CALLS TO GCG PACKAGE FOR TRANSPORT TIME STEP1286 IN FLOW TIME STEP   1 STRESS PERIOD   2
     2 TOTAL ITERATIONS
     1 CALLS TO GCG PACKAGE FOR TRANSPORT TIME STEP1287 IN FLOW TIME STEP   1 STRESS PERIOD   2
     2 TOTAL ITERATIONS
     1 CALLS TO GCG PACKAGE FOR TRANSPORT TIME STEP1288 IN FLOW TIME STEP   1 STRESS PERIOD   2
     2 TOTAL ITERATIONS
     1 CALLS TO GCG PACKAGE FOR TRANSPORT TIME STEP1289 IN FLOW TIME STEP   1 STRESS PERIOD   2
     2 TOTAL ITERATIONS
     1 CALLS TO GCG PACKAGE FOR TRANSPORT TIME STEP1290 IN FLOW TIME STEP   1 STRESS PERIOD   2
     2 TOTAL ITERATIONS
     1 CALLS TO GCG PACKAGE FOR TRANSPORT TIME STEP1291 IN FLOW TIME STEP   1 STRESS PERIOD   2
     2 TOTAL ITERATIONS
     1 CALLS TO GCG PACKAGE FOR TRANSPORT TIME STEP1292 IN FLOW TIME STEP   1 STRESS PERIOD   2
     2 TOTAL ITERATIONS
     1 CALLS TO GCG PACKAGE FOR TRANSPORT TIME STEP1293 IN FLOW TIME STEP   1 STRESS PERIOD   2
     2 TOTAL ITERATIONS
     1 CALLS TO GCG PACKAGE FOR TRANSPORT TIME STEP1294 IN FLOW TIME STEP   1 STRESS PERIOD   2
     2 TOTAL ITERATIONS
     1 CALLS TO GCG PACKAGE FOR TRANSPORT TIME STEP1295 IN FLOW TIME STEP   1 STRESS PERIOD   2
     2 TOTAL ITERATIONS
     1 CALLS TO GCG PACKAGE FOR TRANSPORT TIME STEP1296 IN FLOW TIME STEP   1 STRESS PERIOD   2
     2 TOTAL ITERATIONS
     1 CALLS TO GCG PACKAGE FOR TRANSPORT TIME STEP1297 IN FLOW TIME STEP   1 STRESS PERIOD   2
     2 TOTAL ITERATIONS
     1 CALLS TO GCG PACKAGE FOR TRANSPORT TIME STEP1298 IN FLOW TIME STEP   1 STRESS PERIOD   2
     2 TOTAL ITERATIONS
     1 CALLS TO GCG PACKAGE FOR TRANSPORT TIME STEP1299 IN FLOW TIME STEP   1 STRESS PERIOD   2
     2 TOTAL ITERATIONS
     1 CALLS TO GCG PACKAGE FOR TRANSPORT TIME STEP1300 IN FLOW TIME STEP   1 STRESS PERIOD   2
     2 TOTAL ITERATIONS
     1 CALLS TO GCG PACKAGE FOR TRANSPORT TIME STEP1301 IN FLOW TIME STEP   1 STRESS PERIOD   2
     2 TOTAL ITERATIONS
     1 CALLS TO GCG PACKAGE FOR TRANSPORT TIME STEP1302 IN FLOW TIME STEP   1 STRESS PERIOD   2
     2 TOTAL ITERATIONS
     1 CALLS TO GCG PACKAGE FOR TRANSPORT TIME STEP1303 IN FLOW TIME STEP   1 STRESS PERIOD   2
     2 TOTAL ITERATIONS
     1 CALLS TO GCG PACKAGE FOR TRANSPORT TIME STEP1304 IN FLOW TIME STEP   1 STRESS PERIOD   2
     2 TOTAL ITERATIONS
     1 CALLS TO GCG PACKAGE FOR TRANSPORT TIME STEP1305 IN FLOW TIME STEP   1 STRESS PERIOD   2
     2 TOTAL ITERATIONS
     1 CALLS TO GCG PACKAGE FOR TRANSPORT TIME STEP1306 IN FLOW TIME STEP   1 STRESS PERIOD   2
     2 TOTAL ITERATIONS
     1 CALLS TO GCG PACKAGE FOR TRANSPORT TIME STEP1307 IN FLOW TIME STEP   1 STRESS PERIOD   2
     2 TOTAL ITERATIONS
     1 CALLS TO GCG PACKAGE FOR TRANSPORT TIME STEP1308 IN FLOW TIME STEP   1 STRESS PERIOD   2
     2 TOTAL ITERATIONS
     1 CALLS TO GCG PACKAGE FOR TRANSPORT TIME STEP1309 IN FLOW TIME STEP   1 STRESS PERIOD   2
     2 TOTAL ITERATIONS
     1 CALLS TO GCG PACKAGE FOR TRANSPORT TIME STEP1310 IN FLOW TIME STEP   1 STRESS PERIOD   2
     2 TOTAL ITERATIONS
     1 CALLS TO GCG PACKAGE FOR TRANSPORT TIME STEP1311 IN FLOW TIME STEP   1 STRESS PERIOD   2
     2 TOTAL ITERATIONS
     1 CALLS TO GCG PACKAGE FOR TRANSPORT TIME STEP1312 IN FLOW TIME STEP   1 STRESS PERIOD   2
     2 TOTAL ITERATIONS
     1 CALLS TO GCG PACKAGE FOR TRANSPORT TIME STEP1313 IN FLOW TIME STEP   1 STRESS PERIOD   2
     2 TOTAL ITERATIONS
     1 CALLS TO GCG PACKAGE FOR TRANSPORT TIME STEP1314 IN FLOW TIME STEP   1 STRESS PERIOD   2
     2 TOTAL ITERATIONS
     1 CALLS TO GCG PACKAGE FOR TRANSPORT TIME STEP1315 IN FLOW TIME STEP   1 STRESS PERIOD   2
     2 TOTAL ITERATIONS
     1 CALLS TO GCG PACKAGE FOR TRANSPORT TIME STEP1316 IN FLOW TIME STEP   1 STRESS PERIOD   2
     2 TOTAL ITERATIONS
     1 CALLS TO GCG PACKAGE FOR TRANSPORT TIME STEP1317 IN FLOW TIME STEP   1 STRESS PERIOD   2
     2 TOTAL ITERATIONS
     1 CALLS TO GCG PACKAGE FOR TRANSPORT TIME STEP1318 IN FLOW TIME STEP   1 STRESS PERIOD   2
     2 TOTAL ITERATIONS
     1 CALLS TO GCG PACKAGE FOR TRANSPORT TIME STEP1319 IN FLOW TIME STEP   1 STRESS PERIOD   2
     2 TOTAL ITERATIONS
     1 CALLS TO GCG PACKAGE FOR TRANSPORT TIME STEP1320 IN FLOW TIME STEP   1 STRESS PERIOD   2
     2 TOTAL ITERATIONS
     1 CALLS TO GCG PACKAGE FOR TRANSPORT TIME STEP1321 IN FLOW TIME STEP   1 STRESS PERIOD   2
     2 TOTAL ITERATIONS
     1 CALLS TO GCG PACKAGE FOR TRANSPORT TIME STEP1322 IN FLOW TIME STEP   1 STRESS PERIOD   2
     2 TOTAL ITERATIONS
     1 CALLS TO GCG PACKAGE FOR TRANSPORT TIME STEP1323 IN FLOW TIME STEP   1 STRESS PERIOD   2
     2 TOTAL ITERATIONS
     1 CALLS TO GCG PACKAGE FOR TRANSPORT TIME STEP1324 IN FLOW TIME STEP   1 STRESS PERIOD   2
     2 TOTAL ITERATIONS
     1 CALLS TO GCG PACKAGE FOR TRANSPORT TIME STEP1325 IN FLOW TIME STEP   1 STRESS PERIOD   2
     2 TOTAL ITERATIONS
     1 CALLS TO GCG PACKAGE FOR TRANSPORT TIME STEP1326 IN FLOW TIME STEP   1 STRESS PERIOD   2
     2 TOTAL ITERATIONS
     1 CALLS TO GCG PACKAGE FOR TRANSPORT TIME STEP1327 IN FLOW TIME STEP   1 STRESS PERIOD   2
     2 TOTAL ITERATIONS
     1 CALLS TO GCG PACKAGE FOR TRANSPORT TIME STEP1328 IN FLOW TIME STEP   1 STRESS PERIOD   2
     2 TOTAL ITERATIONS
     1 CALLS TO GCG PACKAGE FOR TRANSPORT TIME STEP1329 IN FLOW TIME STEP   1 STRESS PERIOD   2
     2 TOTAL ITERATIONS
     1 CALLS TO GCG PACKAGE FOR TRANSPORT TIME STEP1330 IN FLOW TIME STEP   1 STRESS PERIOD   2
     2 TOTAL ITERATIONS
     1 CALLS TO GCG PACKAGE FOR TRANSPORT TIME STEP1331 IN FLOW TIME STEP   1 STRESS PERIOD   2
     2 TOTAL ITERATIONS
     1 CALLS TO GCG PACKAGE FOR TRANSPORT TIME STEP1332 IN FLOW TIME STEP   1 STRESS PERIOD   2
     2 TOTAL ITERATIONS
     1 CALLS TO GCG PACKAGE FOR TRANSPORT TIME STEP1333 IN FLOW TIME STEP   1 STRESS PERIOD   2
     2 TOTAL ITERATIONS
     1 CALLS TO GCG PACKAGE FOR TRANSPORT TIME STEP1334 IN FLOW TIME STEP   1 STRESS PERIOD   2
     2 TOTAL ITERATIONS
     1 CALLS TO GCG PACKAGE FOR TRANSPORT TIME STEP1335 IN FLOW TIME STEP   1 STRESS PERIOD   2
     2 TOTAL ITERATIONS
     1 CALLS TO GCG PACKAGE FOR TRANSPORT TIME STEP1336 IN FLOW TIME STEP   1 STRESS PERIOD   2
     2 TOTAL ITERATIONS
     1 CALLS TO GCG PACKAGE FOR TRANSPORT TIME STEP1337 IN FLOW TIME STEP   1 STRESS PERIOD   2
     2 TOTAL ITERATIONS
     1 CALLS TO GCG PACKAGE FOR TRANSPORT TIME STEP1338 IN FLOW TIME STEP   1 STRESS PERIOD   2
     2 TOTAL ITERATIONS
     1 CALLS TO GCG PACKAGE FOR TRANSPORT TIME STEP1339 IN FLOW TIME STEP   1 STRESS PERIOD   2
     2 TOTAL ITERATIONS
     1 CALLS TO GCG PACKAGE FOR TRANSPORT TIME STEP1340 IN FLOW TIME STEP   1 STRESS PERIOD   2
     2 TOTAL ITERATIONS
  MAXIMUM CONCENTRATION CHANGES FOR EACH ITERATION:
  MAX. CHANGE LAYER,ROW,COL MAX. CHANGE LAYER,ROW,COL MAX. CHANGE LAYER,ROW,COL MAX. CHANGE LAYER,ROW,COL MAX. CHANGE LAYER,ROW,COL
 ------------------------------------------------------------------------------------------------------------------------------------
   0.4368E-02 (  1,  1,101)   0.000     (  1,  1,  1)



 >>>>>>>>>>>>>>>>>>>>>>>>>>>>>>>>>>>>>>>>>>>>>>>>>>>>>>>FOR COMPONENT NO. 01<<<<<<<<<<<<<<<<<<<<<<<<<<<<<<<<<<<<<<<<<<<<<<<<<<<<<<<


                                            -------------------------------------------
                                                      TRANSPORT STEP NO. 1340
                                            -------------------------------------------

 TOTAL ELAPSED TIME SINCE BEGINNING OF SIMULATION =   1500.000    D   
 .....................................................................

                     CONCENTRATIONS   IN LAYER  1 AT END OF TRANSPORT STEP 1340, TIME STEP  1, STRESS PERIOD  2
                     ------------------------------------------------------------------------------------------

           1          2          3          4          5          6          7          8          9         10         11
          12         13         14         15         16         17         18         19         20         21         22
          23         24         25         26         27         28         29         30         31         32         33
          34         35         36         37         38         39         40         41         42         43         44
          45         46         47         48         49         50         51         52         53         54         55
          56         57         58         59         60         61         62         63         64         65         66
          67         68         69         70         71         72         73         74         75         76         77
          78         79         80         81         82         83         84         85         86         87         88
          89         90         91         92         93         94         95         96         97         98         99
         100        101
 ..............................................................................................................................
   1   1.625E-06  1.874E-06  2.149E-06  2.452E-06  2.786E-06  3.154E-06  3.558E-06  4.002E-06  4.487E-06  5.019E-06  5.599E-06
       6.233E-06  6.924E-06  7.675E-06  8.493E-06  9.381E-06  1.035E-05  1.139E-05  1.252E-05  1.375E-05  1.507E-05  1.650E-05
       1.804E-05  1.970E-05  2.149E-05  2.341E-05  2.548E-05  2.770E-05  3.009E-05  3.265E-05  3.539E-05  3.832E-05  4.146E-05
       4.482E-05  4.841E-05  5.224E-05  5.632E-05  6.067E-05  6.531E-05  7.024E-05  7.549E-05  8.106E-05  8.698E-05  9.327E-05
       9.993E-05  1.070E-04  1.145E-04  1.224E-04  1.308E-04  1.396E-04  1.490E-04  1.588E-04  1.692E-04  1.802E-04  1.917E-04
       2.039E-04  2.166E-04  2.301E-04  2.442E-04  2.589E-04  2.744E-04  2.907E-04  3.077E-04  3.255E-04  3.440E-04  3.634E-04
       3.837E-04  4.047E-04  4.267E-04  4.495E-04  4.733E-04  4.979E-04  5.235E-04  5.499E-04  5.772E-04  6.055E-04  6.346E-04
       6.646E-04  6.954E-04  7.271E-04  7.595E-04  7.926E-04  8.263E-04  8.606E-04  8.954E-04  9.305E-04  9.658E-04  1.001E-03
       1.037E-03  1.072E-03  1.106E-03  1.140E-03  1.172E-03  1.203E-03  1.233E-03  1.260E-03  1.284E-03  1.305E-03  1.321E-03
       1.333E-03  1.340E-03

                     CUMMULATIVE MASS BUDGETS AT END OF TRANSPORT STEP 1340, TIME STEP    1, STRESS PERIOD    2
                     ------------------------------------------------------------------------------------------

                                                             IN                           OUT
                                                      ----------------             ----------------
                               CONSTANT CONCENTRATION:    0.000000                    0.000000    
                                        CONSTANT HEAD:    0.000000                  -0.4564568E-01
                                                WELLS:   0.4736005E-01                0.000000    
                               1ST/0TH ORDER REACTION:    0.000000                    0.000000    
                                MASS STORAGE (SOLUTE):   0.1961632E-01              -0.1995993E-01
                                MASS STORAGE (SORBED):   0.7850875E-01              -0.7986882E-01
                            ---------------------------------------------------------------------------
                                              [TOTAL]:   0.1454851     KG           -0.1454744     KG  

                                                          NET (IN - OUT):   0.1068413E-04
                                                   DISCREPANCY (PERCENT):   0.7344068E-02
  ----- 
 | M T |
 | 3 D | END OF MODEL OUTPUT
  ----- 
