                                   MODFLOW 6
                U.S. GEOLOGICAL SURVEY MODULAR HYDROLOGIC MODEL
                          GROUNDWATER FLOW MODEL (GWF)
                            VERSION 6.6.1 02/10/2025

   MODFLOW 6 compiled Feb 14 2025 13:40:10 with Intel(R) Fortran Intel(R) 64
   Compiler Classic for applications running on Intel(R) 64, Version 2021.7.0
                             Build 20220726_000000

This software has been approved for release by the U.S. Geological 
Survey (USGS). Although the software has been subjected to rigorous 
review, the USGS reserves the right to update the software as needed 
pursuant to further analysis and review. No warranty, expressed or 
implied, is made by the USGS or the U.S. Government as to the 
functionality of the software and related material nor shall the 
fact of release constitute any such warranty. Furthermore, the 
software is released on condition that neither the USGS nor the U.S. 
Government shall be held liable for any damages resulting from its 
authorized or unauthorized use. Also refer to the USGS Water 
Resources Software User Rights Notice for complete use, copyright, 
and distribution information.


As a work of the United States Government, this USGS product is 
in the public domain within the United States. You can copy, 
modify, distribute, and perform the work, even for commercial 
purposes, all without asking permission. Additionally, USGS 
waives copyright and related rights in the work worldwide 
through CC0 1.0 Universal Public Domain Dedication 
(https://creativecommons.org/publicdomain/zero/1.0/).

The following GNU Lesser General Public License (LGPL) libraries
are used in this USGS product:

    SPARSKIT version 2.0
      ilut, luson, and qsplit 
      (https://www-users.cse.umn.edu/~saad/software/SPARSKIT/)

    RCM - Reverse Cuthill McKee Ordering
      (https://people.math.sc.edu/Burkardt/f_src/rcm/rcm.html)

    BLAS - Basic Linear Algebra Subprograms Level 1
      (https://people.math.sc.edu/Burkardt/f_src/blas1_d/blas1_d.html)

    SPARSEKIT - Sparse Matrix Utility Package
      amux, dperm, dvperm, rperm, and cperm
      (https://people.sc.fsu.edu/~jburkardt/f77_src/sparsekit/sparsekit.html)

The following BSD-3 License libraries are used in this USGS product:

    Modern Fortran DAG Library
      Copyright (c) 2018, Jacob Williams
      All rights reserved.
      (https://github.com/jacobwilliams/daglib)

MODFLOW 6 compiler options: /O2 /heap-arrays:0 /fpe:0 /traceback /nologo /fpp
/c /module:win64\mod_mf6\ /object:win64\obj_mf6\

System command used to initiate simulation:
C:\Users\gross.DESKTOP-AIRQM2M\anaconda3\Scripts\mf6.exe

MODFLOW was compiled using uniform precision.

Real Variables
  KIND: 8
  TINY (smallest non-zero value):    2.225074-308
  HUGE (largest value):    1.797693+308
  PRECISION: 15
  SIZE IN BITS: 64

Integer Variables
  KIND: 4
  HUGE (largest value): 2147483647
  SIZE IN BITS: 32

Long Integer Variables
  KIND: 8
  HUGE (largest value): 9223372036854775807
  SIZE IN BITS: 64

Logical Variables
  KIND: 4
  SIZE IN BITS: 32
 
 NAMEFILE OPTIONS:
    NEWTON-RAPHSON method enabled for the model.
 END NAMEFILE OPTIONS:

 DIS -- STRUCTURED GRID DISCRETIZATION PACKAGE, VERSION 2 : 3/27/2014 - INPUT READ FROM MEMPATH: __INPUT__/EX-GWF-DRN-P01/DIS                      


 NPF -- NODE PROPERTY FLOW PACKAGE, VERSION 1, 3/30/2015 INPUT READ FROM MEMPATH: __INPUT__/EX-GWF-DRN-P01/NPF                      


 IC -- Initial Conditions Package, Version 8, 3/28/2015 input read from mempath: __INPUT__/EX-GWF-DRN-P01/IC                       


 Setting Discretization Options
    Model length unit [0=UND, 1=FEET, 2=METERS, 3=CENTIMETERS] set as 1
 End Setting Discretization Options

 Setting Discretization Dimensions
    NLAY = 1
    NROW = 15
    NCOL = 10
 End Setting Discretization Dimensions

 Setting Discretization Griddata
    DELR set from input file
    DELC set from input file
    TOP set from input file
    BOTM set from input file
    IDOMAIN set from input file
 End Setting Discretization Griddata


 The specified IDOMAIN results in a reduced number of cells.
 Number of user nodes: 150
 Number of nodes in solution: 116


 Setting NPF Options
 End Setting NPF Options

 Setting NPF Griddata
    ICELLTYPE set from input file
    K set from input file
    K33 not provided.  Setting K33 = K.
    K22 not provided.  Setting K22 = K.
 End Setting NPF Griddata


 WEL   -- WEL PACKAGE, VERSION 8, 2/22/2014 INPUT READ FROM MEMPATH: __INPUT__/EX-GWF-DRN-P01/WEL_0                    

 PROCESSING WEL BASE OPTIONS
 END OF WEL BASE OPTIONS

 PROCESSING WEL OPTIONS
 END OF WEL OPTIONS

 PROCESSING WEL BASE DIMENSIONS
    MAXBOUND =      10
 END OF WEL BASE DIMENSIONS

 DRN   -- DRN PACKAGE, VERSION 8, 2/22/2014 INPUT READ FROM MEMPATH: __INPUT__/EX-GWF-DRN-P01/DRN-1                    

 PROCESSING DRN BASE OPTIONS
    DRN BOUNDARIES HAVE NAMES IN LAST COLUMN.
 END OF DRN BASE OPTIONS

 OPENED ex-gwf-drn-p01.surfrate.obs
 FILE TYPE:OBS   UNIT 1017   STATUS:OLD                 
 FORMAT:FORMATTED              ACCESS:SEQUENTIAL          
 ACTION:READ                


 PROCESSING DRN OPTIONS
    MOVER OPTION ENABLED
 END OF DRN OPTIONS

 PROCESSING DRN BASE DIMENSIONS
    MAXBOUND =     116
 END OF DRN BASE DIMENSIONS

 GHB   -- GHB PACKAGE, VERSION 8, 2/22/2014 INPUT READ FROM MEMPATH: __INPUT__/EX-GWF-DRN-P01/GHB_0                    

 PROCESSING GHB BASE OPTIONS
 END OF GHB BASE OPTIONS

 PROCESSING GHB OPTIONS
 END OF GHB OPTIONS

 PROCESSING GHB BASE DIMENSIONS
    MAXBOUND =       2
 END OF GHB BASE DIMENSIONS

 SFR   -- SFR PACKAGE, VERSION 8, 2/22/2014 INPUT READ FROM UNIT 1013
 # File generated by Flopy version 3.9.1 on 07/03/2025 at 10:31:06.

 PROCESSING SFR OPTIONS
    MOVER OPTION ENABLED
    LENGTH CONVERSION VALUE (3.280810000000000) SPECIFIED.
 END OF SFR OPTIONS

 PROCESSING SFR DIMENSIONS
    NREACHES = 36
 END OF SFR DIMENSIONS

 PROCESSING SFR PACKAGEDATA
 END OF SFR PACKAGEDATA

 PROCESSING SFR CONNECTIONDATA
 END OF SFR CONNECTIONDATA

 PROCESSING SFR DIVERSIONS
 END OF SFR DIVERSIONS

 UZF   -- UZF CELLS PACKAGE, VERSION 8, 2/22/2014 INPUT READ FROM UNIT 1014
 # File generated by Flopy version 3.9.1 on 07/03/2025 at 10:31:06.

 PROCESSING UZF CELLS OPTIONS
    UZF CELLS BOUNDARIES HAVE NAMES IN LAST COLUMN.
    ET WILL BE SIMULATED WITHIN UZ AND GW ZONES, WITH LINEAR GWET IF OPTION NOT SPECIFIED OTHERWISE.
    GROUNDWATER ET FUNCTION WILL BE LINEAR.
 END OF UZF CELLS OPTIONS

 PROCESSING UZF CELLS DIMENSIONS
    NUZFCELLS = 116
    NTRAILWAVES = 25
    NTRAILSETS = 20
 END OF UZF CELLS DIMENSIONS

 PROCESSING UZF CELLS PACKAGEDATA
 END OF UZF CELLS PACKAGEDATA
    STRT set from input file

 STO -- STORAGE PACKAGE, VERSION 1, 5/19/2014 INPUT READ FROM MEMPATH: __INPUT__/EX-GWF-DRN-P01/STO                      


 PROCESSING STORAGE OPTIONS
 END OF STORAGE OPTIONS

 MVR -- WATER MOVER PACKAGE, VERSION 8, 1/29/2016 INPUT READ FROM UNIT 1008
 # File generated by Flopy version 3.9.1 on 07/03/2025 at 10:31:06.
 PROCESSING MVR OPTIONS
 END OF MVR OPTIONS

 PROCESSING MVR DIMENSIONS
    MAXMVR = 232
    MAXPACKAGES = 3
 END OF MVR DIMENSIONS

 PROCESSING MVR PACKAGES
   INCLUDING PACKAGE: EX-GWF-DRN-P01/SFR-1
   INCLUDING PACKAGE: EX-GWF-DRN-P01/UZF-1
   INCLUDING PACKAGE: EX-GWF-DRN-P01/DRN-1
 END OF MVR PACKAGES
    BINARY GRID INFORMATION WILL BE WRITTEN TO:
      UNIT NUMBER: 1018
      FILE NAME: ex-gwf-drn-p01.dis.grb

 OPENED ex-gwf-drn-p01.dis.grb
 FILE TYPE:DATA(BINARY)   UNIT 1018   STATUS:REPLACE             
 FORMAT:UNFORMATTED            ACCESS:STREAM              
 ACTION:READWRITE           

      THE LAST TIME STEP WILL BE PRINTED
      THE LAST TIME STEP WILL BE PRINTED
 # File generated by Flopy version 3.9.1 on 07/03/2025 at 10:31:06.

 PROCESSING OC OPTIONS

 END OF OC OPTIONS

The observation utility is active for "DRN-1"
 # File generated by Flopy version 3.9.1 on 07/03/2025 at 10:31:06.

Processing observation options:

Text output number of digits of precision set to: 10
The PRINT_INPUT option has been specified.


 OBSERVATIONS READ FROM FILE "ex-gwf-drn-p01.surfrate.obs"
 ----------------------------------------------------------------------------------------------------------------------------------------------------------------------------------------------------------------------------
 NAME                                     TYPE                                       TIME         LOCATION DATA                              OUTPUT FILENAME                                                                 
 ----------------------------------------------------------------------------------------------------------------------------------------------------------------------------------------------------------------------------
 SURFRATE                                 CONTINUOUS  TO-MVR                         ALL TIMES    "  surfrate"                               ex-gwf-drn-p01.surfrate.obs.csv                                                 
 ----------------------------------------------------------------------------------------------------------------------------------------------------------------------------------------------------------------------------


 SFR PACKAGE (SFR-1) CONVERSION DATA
    UNIT CONVERSION VALUE (1.485914064252526).


start timestep kper="1" kstp="1" mode="normal"


 BEGIN READING OUTPUT CONTROL FOR STRESS PERIOD 1
      THE LAST TIME STEP WILL BE PRINTED

 END READING OUTPUT CONTROL FOR STRESS PERIOD 1


 PROCESSING STORAGE PERIOD DATA
 END PROCESSING STORAGE PERIOD DATA


 STRESS PERIOD 1 IS STEADY-STATE


  READING WATER MOVERS FOR PERIOD 1

 END OF DATA FOR PERIOD      1

    232 MOVERS READ FOR PERIOD 1


  SFR-1 BUDGET FOR ENTIRE MODEL AT END OF TIME STEP    1, STRESS PERIOD   1
  ------------------------------------------------------------------------------

     CUMULATIVE SFR-1      L**3       RATES FOR THIS TIME STEP      L**3/T
     ------------------                 ------------------------

           IN:                                      IN:
           ---                                      ---
                 GWF =    33891502.7578                   GWF =          12.8963
            RAINFALL =           0.0000              RAINFALL =           0.0000
         EVAPORATION =           0.0000           EVAPORATION =           0.0000
              RUNOFF =           0.0000                RUNOFF =           0.0000
          EXT-INFLOW =   486180000.0000            EXT-INFLOW =         185.0000
         EXT-OUTFLOW =           0.0000           EXT-OUTFLOW =           0.0000
             STORAGE =           0.0000               STORAGE =           0.0000
            FROM-MVR =           0.0000              FROM-MVR =           0.0000
              TO-MVR =           0.0000                TO-MVR =           0.0000

            TOTAL IN =   520071502.7578              TOTAL IN =         197.8963

          OUT:                                     OUT:
          ----                                     ----
                 GWF =   113332544.8724                   GWF =          43.1250
            RAINFALL =           0.0000              RAINFALL =           0.0000
         EVAPORATION =           0.0000           EVAPORATION =           0.0000
              RUNOFF =           0.0000                RUNOFF =           0.0000
          EXT-INFLOW =           0.0000            EXT-INFLOW =           0.0000
         EXT-OUTFLOW =   406738957.8854           EXT-OUTFLOW =         154.7713
             STORAGE =           0.0000               STORAGE =           0.0000
            FROM-MVR =           0.0000              FROM-MVR =           0.0000
              TO-MVR =           0.0000                TO-MVR =           0.0000

           TOTAL OUT =   520071502.7578             TOTAL OUT =         197.8963

            IN - OUT =       5.9605E-08              IN - OUT =       2.8422E-14

 PERCENT DISCREPANCY =           0.00     PERCENT DISCREPANCY =           0.00



  UZF-1 BUDGET FOR ENTIRE MODEL AT END OF TIME STEP    1, STRESS PERIOD   1
  ------------------------------------------------------------------------------

     CUMULATIVE UZF-1      L**3       RATES FOR THIS TIME STEP      L**3/T
     ------------------                 ------------------------

           IN:                                      IN:
           ---                                      ---
                 GWF =           0.0000                   GWF =           0.0000
        INFILTRATION =    22272300.0000          INFILTRATION =           8.4750
             REJ-INF =           0.0000               REJ-INF =           0.0000
                UZET =           0.0000                  UZET =           0.0000
             STORAGE =           0.0000               STORAGE =           0.0000
            FROM-MVR =           0.0000              FROM-MVR =           0.0000
      REJ-INF-TO-MVR =           0.0000        REJ-INF-TO-MVR =           0.0000

            TOTAL IN =    22272300.0000              TOTAL IN =           8.4750

          OUT:                                     OUT:
          ----                                     ----
                 GWF =    22272300.0000                   GWF =           8.4750
        INFILTRATION =           0.0000          INFILTRATION =           0.0000
             REJ-INF =           0.0000               REJ-INF =           0.0000
                UZET =           0.0000                  UZET =           0.0000
             STORAGE =           0.0000               STORAGE =           0.0000
            FROM-MVR =           0.0000              FROM-MVR =           0.0000
      REJ-INF-TO-MVR =           0.0000        REJ-INF-TO-MVR =           0.0000

           TOTAL OUT =    22272300.0000             TOTAL OUT =           8.4750

            IN - OUT =           0.0000              IN - OUT =           0.0000

 PERCENT DISCREPANCY =           0.00     PERCENT DISCREPANCY =           0.00



  WATER MOVER BUDGET FOR ENTIRE MODEL AT END OF TIME STEP    1, STRESS PERIOD   1
  ------------------------------------------------------------------------------

     CUMULATIVE WATER MOVER      L**3       RATES FOR THIS TIME STEP      L**3/T
     ------------------                 ------------------------

           IN:                                      IN:
           ---                                      ---
               SFR-1 =           0.0000                 SFR-1 =           0.0000
               UZF-1 =           0.0000                 UZF-1 =           0.0000
               DRN-1 =           0.0000                 DRN-1 =           0.0000

            TOTAL IN =           0.0000              TOTAL IN =           0.0000

          OUT:                                     OUT:
          ----                                     ----
               SFR-1 =           0.0000                 SFR-1 =           0.0000
               UZF-1 =           0.0000                 UZF-1 =           0.0000
               DRN-1 =           0.0000                 DRN-1 =           0.0000

           TOTAL OUT =           0.0000             TOTAL OUT =           0.0000

            IN - OUT =           0.0000              IN - OUT =           0.0000

 PERCENT DISCREPANCY =           0.00     PERCENT DISCREPANCY =           0.00



  VOLUME BUDGET FOR ENTIRE MODEL AT END OF TIME STEP    1, STRESS PERIOD   1
  ---------------------------------------------------------------------------------------------------

     CUMULATIVE VOLUME      L**3       RATES FOR THIS TIME STEP      L**3/T          PACKAGE NAME    
     ------------------                 ------------------------                     ----------------

           IN:                                      IN:
           ---                                      ---
              STO-SS =           0.0000                STO-SS =           0.0000     STORAGE                          
              STO-SY =           0.0000                STO-SY =           0.0000     STORAGE                          
                 WEL =           0.0000                   WEL =           0.0000     WEL_0                            
                 DRN =           0.0000                   DRN =           0.0000     DRN-1                            
          DRN-TO-MVR =           0.0000            DRN-TO-MVR =           0.0000     DRN-1                            
                 GHB =      651970.5490                   GHB =           0.2481     GHB_0                            
                 SFR =   113332546.3397                   SFR =          43.1250     SFR-1                            
           UZF-GWRCH =    22272300.0000             UZF-GWRCH =           8.4750     UZF-1                            
            UZF-GWET =           0.0000              UZF-GWET =           0.0000     UZF-1                            

            TOTAL IN =   136256816.8887              TOTAL IN =          51.8481

          OUT:                                     OUT:
          ----                                     ----
              STO-SS =           0.0000                STO-SS =           0.0000     STORAGE                          
              STO-SY =           0.0000                STO-SY =           0.0000     STORAGE                          
                 WEL =    52560000.0000                   WEL =          20.0000     WEL_0                            
                 DRN =           0.0000                   DRN =           0.0000     DRN-1                            
          DRN-TO-MVR =           0.0000            DRN-TO-MVR =           0.0000     DRN-1                            
                 GHB =      554609.9804                   GHB =           0.2110     GHB_0                            
                 SFR =    33891502.1975                   SFR =          12.8963     SFR-1                            
           UZF-GWRCH =           0.0000             UZF-GWRCH =           0.0000     UZF-1                            
            UZF-GWET =    49250711.2512              UZF-GWET =          18.7408     UZF-1                            

           TOTAL OUT =   136256823.4292             TOTAL OUT =          51.8481

            IN - OUT =          -6.5405              IN - OUT =      -2.4888E-06

 PERCENT DISCREPANCY =          -0.00     PERCENT DISCREPANCY =          -0.00




         TIME SUMMARY AT END OF TIME STEP    1 IN STRESS PERIOD    1
                    SECONDS     MINUTES      HOURS       DAYS        YEARS
                    -----------------------------------------------------------
   TIME STEP LENGTH 2.62800E+06  43800.      730.00      30.417     8.32763E-02
 STRESS PERIOD TIME 2.62800E+06  43800.      730.00      30.417     8.32763E-02
         TOTAL TIME 2.62800E+06  43800.      730.00      30.417     8.32763E-02


end timestep


start timestep kper="2" kstp="1" mode="normal"


 END OF FILE DETECTED IN OUTPUT CONTROL.
 CURRENT OUTPUT CONTROL SETTINGS WILL BE 
 REPEATED UNTIL THE END OF THE SIMULATION.

 OUTPUT CONTROL FOR STRESS PERIOD 2 IS REPEATED USING SETTINGS FROM A PREVIOUS STRESS PERIOD.


 PROCESSING STORAGE PERIOD DATA
 END PROCESSING STORAGE PERIOD DATA


 STRESS PERIOD 2 IS TRANSIENT


 REUSING MVRS FROM LAST STRESS PERIOD

 REUSING SFRS FROM LAST STRESS PERIOD

end timestep


start timestep kper="2" kstp="2" mode="normal"


end timestep


start timestep kper="2" kstp="3" mode="normal"


end timestep


start timestep kper="2" kstp="4" mode="normal"


end timestep


start timestep kper="2" kstp="5" mode="normal"


end timestep


start timestep kper="2" kstp="6" mode="normal"


end timestep


start timestep kper="2" kstp="7" mode="normal"


end timestep


start timestep kper="2" kstp="8" mode="normal"


end timestep


start timestep kper="2" kstp="9" mode="normal"


end timestep


start timestep kper="2" kstp="10" mode="normal"


end timestep


start timestep kper="2" kstp="11" mode="normal"


end timestep


start timestep kper="2" kstp="12" mode="normal"


end timestep


start timestep kper="2" kstp="13" mode="normal"


end timestep


start timestep kper="2" kstp="14" mode="normal"


end timestep


start timestep kper="2" kstp="15" mode="normal"



  SFR-1 BUDGET FOR ENTIRE MODEL AT END OF TIME STEP   15, STRESS PERIOD   2
  ------------------------------------------------------------------------------

     CUMULATIVE SFR-1      L**3       RATES FOR THIS TIME STEP      L**3/T
     ------------------                 ------------------------

           IN:                                      IN:
           ---                                      ---
                 GWF =    67589556.4364                   GWF =          12.8100
            RAINFALL =           0.0000              RAINFALL =           0.0000
         EVAPORATION =           0.0000           EVAPORATION =           0.0000
              RUNOFF =           0.0000                RUNOFF =           0.0000
          EXT-INFLOW =   972360000.0000            EXT-INFLOW =         185.0000
         EXT-OUTFLOW =           0.0000           EXT-OUTFLOW =           0.0000
             STORAGE =           0.0000               STORAGE =           0.0000
            FROM-MVR =           0.0000              FROM-MVR =           0.0000
              TO-MVR =           0.0000                TO-MVR =           0.0000

            TOTAL IN =  1039949556.4364              TOTAL IN =         197.8100

          OUT:                                     OUT:
          ----                                     ----
                 GWF =   226850251.0004                   GWF =          43.2049
            RAINFALL =           0.0000              RAINFALL =           0.0000
         EVAPORATION =           0.0000           EVAPORATION =           0.0000
              RUNOFF =           0.0000                RUNOFF =           0.0000
          EXT-INFLOW =           0.0000            EXT-INFLOW =           0.0000
         EXT-OUTFLOW =   813099305.4360           EXT-OUTFLOW =         154.6051
             STORAGE =           0.0000               STORAGE =           0.0000
            FROM-MVR =           0.0000              FROM-MVR =           0.0000
              TO-MVR =           0.0000                TO-MVR =           0.0000

           TOTAL OUT =  1039949556.4364             TOTAL OUT =         197.8100

            IN - OUT =       2.3842E-07              IN - OUT =      -2.8422E-14

 PERCENT DISCREPANCY =           0.00     PERCENT DISCREPANCY =          -0.00



  UZF-1 BUDGET FOR ENTIRE MODEL AT END OF TIME STEP   15, STRESS PERIOD   2
  ------------------------------------------------------------------------------

     CUMULATIVE UZF-1      L**3       RATES FOR THIS TIME STEP      L**3/T
     ------------------                 ------------------------

           IN:                                      IN:
           ---                                      ---
                 GWF =           0.0000                   GWF =           0.0000
        INFILTRATION =   200450700.0000          INFILTRATION =          67.8000
             REJ-INF =           0.0000               REJ-INF =           0.0000
                UZET =           0.0000                  UZET =           0.0000
             STORAGE =           0.0000               STORAGE =           0.0000
            FROM-MVR =           0.0000              FROM-MVR =           0.0000
      REJ-INF-TO-MVR =           0.0000        REJ-INF-TO-MVR =           0.0000

            TOTAL IN =   200450700.0000              TOTAL IN =          67.8000

          OUT:                                     OUT:
          ----                                     ----
                 GWF =    22272300.0000                   GWF =           0.0000
        INFILTRATION =           0.0000          INFILTRATION =           0.0000
             REJ-INF =           0.0000               REJ-INF =           0.0000
                UZET =    18751469.8423                  UZET =          12.9626
             STORAGE =   159426930.1577               STORAGE =          54.8374
            FROM-MVR =           0.0000              FROM-MVR =           0.0000
      REJ-INF-TO-MVR =           0.0000        REJ-INF-TO-MVR =           0.0000

           TOTAL OUT =   200450700.0000             TOTAL OUT =          67.8000

            IN - OUT =       1.1921E-07              IN - OUT =       3.4106E-13

 PERCENT DISCREPANCY =           0.00     PERCENT DISCREPANCY =           0.00



  WATER MOVER BUDGET FOR ENTIRE MODEL AT END OF TIME STEP   15, STRESS PERIOD   2
  ------------------------------------------------------------------------------

     CUMULATIVE WATER MOVER      L**3       RATES FOR THIS TIME STEP      L**3/T
     ------------------                 ------------------------

           IN:                                      IN:
           ---                                      ---
               SFR-1 =           0.0000                 SFR-1 =           0.0000
               UZF-1 =           0.0000                 UZF-1 =           0.0000
               DRN-1 =           0.0000                 DRN-1 =           0.0000

            TOTAL IN =           0.0000              TOTAL IN =           0.0000

          OUT:                                     OUT:
          ----                                     ----
               SFR-1 =           0.0000                 SFR-1 =           0.0000
               UZF-1 =           0.0000                 UZF-1 =           0.0000
               DRN-1 =           0.0000                 DRN-1 =           0.0000

           TOTAL OUT =           0.0000             TOTAL OUT =           0.0000

            IN - OUT =           0.0000              IN - OUT =           0.0000

 PERCENT DISCREPANCY =           0.00     PERCENT DISCREPANCY =           0.00



  VOLUME BUDGET FOR ENTIRE MODEL AT END OF TIME STEP   15, STRESS PERIOD   2
  ---------------------------------------------------------------------------------------------------

     CUMULATIVE VOLUME      L**3       RATES FOR THIS TIME STEP      L**3/T          PACKAGE NAME    
     ------------------                 ------------------------                     ----------------

           IN:                                      IN:
           ---                                      ---
              STO-SS =       35960.7203                STO-SS =       1.2647E-02     STORAGE                          
              STO-SY =    20349200.5778                STO-SY =           7.3133     STORAGE                          
                 WEL =           0.0000                   WEL =           0.0000     WEL_0                            
                 DRN =           0.0000                   DRN =           0.0000     DRN-1                            
          DRN-TO-MVR =           0.0000            DRN-TO-MVR =           0.0000     DRN-1                            
                 GHB =     1304169.8318                   GHB =           0.2482     GHB_0                            
                 SFR =   226850252.4677                   SFR =          43.2049     SFR-1                            
           UZF-GWRCH =    22272300.0000             UZF-GWRCH =           0.0000     UZF-1                            
            UZF-GWET =           0.0000              UZF-GWET =           0.0000     UZF-1                            

            TOTAL IN =   270811883.5976              TOTAL IN =          50.7791

          OUT:                                     OUT:
          ----                                     ----
              STO-SS =          84.6307                STO-SS =       1.7888E-04     STORAGE                          
              STO-SY =       38020.9082                STO-SY =       7.8733E-02     STORAGE                          
                 WEL =   105120000.0000                   WEL =          20.0000     WEL_0                            
                 DRN =           0.0000                   DRN =           0.0000     DRN-1                            
          DRN-TO-MVR =           0.0000            DRN-TO-MVR =           0.0000     DRN-1                            
                 GHB =     1108928.9569                   GHB =           0.2109     GHB_0                            
                 SFR =    67589555.8750                   SFR =          12.8100     SFR-1                            
           UZF-GWRCH =           0.0000             UZF-GWRCH =           0.0000     UZF-1                            
            UZF-GWET =    96955299.7835              UZF-GWET =          17.6793     UZF-1                            

           TOTAL OUT =   270811890.1544             TOTAL OUT =          50.7791

            IN - OUT =          -6.5568              IN - OUT =       1.2545E-08

 PERCENT DISCREPANCY =          -0.00     PERCENT DISCREPANCY =           0.00




         TIME SUMMARY AT END OF TIME STEP   15 IN STRESS PERIOD    2
                    SECONDS     MINUTES      HOURS       DAYS        YEARS
                    -----------------------------------------------------------
   TIME STEP LENGTH 3.14103E+05  5235.0      87.251      3.6354     9.95332E-03
 STRESS PERIOD TIME 2.62800E+06  43800.      730.00      30.417     8.32763E-02
         TOTAL TIME 5.25600E+06  87600.      1460.0      60.833     0.16655    


end timestep


start timestep kper="3" kstp="1" mode="normal"


 OUTPUT CONTROL FOR STRESS PERIOD 3 IS REPEATED USING SETTINGS FROM A PREVIOUS STRESS PERIOD.

 REUSING MVRS FROM LAST STRESS PERIOD

 REUSING SFRS FROM LAST STRESS PERIOD

end timestep


start timestep kper="3" kstp="2" mode="normal"


end timestep


start timestep kper="3" kstp="3" mode="normal"


end timestep


start timestep kper="3" kstp="4" mode="normal"


end timestep


start timestep kper="3" kstp="5" mode="normal"


end timestep


start timestep kper="3" kstp="6" mode="normal"


end timestep


start timestep kper="3" kstp="7" mode="normal"


end timestep


start timestep kper="3" kstp="8" mode="normal"


end timestep


start timestep kper="3" kstp="9" mode="normal"


end timestep


start timestep kper="3" kstp="10" mode="normal"


end timestep


start timestep kper="3" kstp="11" mode="normal"


end timestep


start timestep kper="3" kstp="12" mode="normal"


end timestep


start timestep kper="3" kstp="13" mode="normal"


end timestep


start timestep kper="3" kstp="14" mode="normal"


end timestep


start timestep kper="3" kstp="15" mode="normal"



  SFR-1 BUDGET FOR ENTIRE MODEL AT END OF TIME STEP   15, STRESS PERIOD   3
  ------------------------------------------------------------------------------

     CUMULATIVE SFR-1      L**3       RATES FOR THIS TIME STEP      L**3/T
     ------------------                 ------------------------

           IN:                                      IN:
           ---                                      ---
                 GWF =   101348973.0659                   GWF =          12.8903
            RAINFALL =           0.0000              RAINFALL =           0.0000
         EVAPORATION =           0.0000           EVAPORATION =           0.0000
              RUNOFF =           0.0000                RUNOFF =           0.0000
          EXT-INFLOW =  1458540000.0000            EXT-INFLOW =         185.0000
         EXT-OUTFLOW =           0.0000           EXT-OUTFLOW =           0.0000
             STORAGE =           0.0000               STORAGE =           0.0000
            FROM-MVR =           0.0000              FROM-MVR =           0.0000
              TO-MVR =           0.0000                TO-MVR =           0.0000

            TOTAL IN =  1559888973.0659              TOTAL IN =         197.8903

          OUT:                                     OUT:
          ----                                     ----
                 GWF =   340319326.6465                   GWF =          43.1448
            RAINFALL =           0.0000              RAINFALL =           0.0000
         EVAPORATION =           0.0000           EVAPORATION =           0.0000
              RUNOFF =           0.0000                RUNOFF =           0.0000
          EXT-INFLOW =           0.0000            EXT-INFLOW =           0.0000
         EXT-OUTFLOW =  1219569646.4194           EXT-OUTFLOW =         154.7455
             STORAGE =           0.0000               STORAGE =           0.0000
            FROM-MVR =           0.0000              FROM-MVR =           0.0000
              TO-MVR =           0.0000                TO-MVR =           0.0000

           TOTAL OUT =  1559888973.0659             TOTAL OUT =         197.8903

            IN - OUT =           0.0000              IN - OUT =           0.0000

 PERCENT DISCREPANCY =           0.00     PERCENT DISCREPANCY =           0.00



  UZF-1 BUDGET FOR ENTIRE MODEL AT END OF TIME STEP   15, STRESS PERIOD   3
  ------------------------------------------------------------------------------

     CUMULATIVE UZF-1      L**3       RATES FOR THIS TIME STEP      L**3/T
     ------------------                 ------------------------

           IN:                                      IN:
           ---                                      ---
                 GWF =           0.0000                   GWF =           0.0000
        INFILTRATION =   423173700.0000          INFILTRATION =          84.7500
             REJ-INF =           0.0000               REJ-INF =           0.0000
                UZET =           0.0000                  UZET =           0.0000
             STORAGE =      695382.5184               STORAGE =           1.2933
            FROM-MVR =           0.0000              FROM-MVR =           0.0000
      REJ-INF-TO-MVR =           0.0000        REJ-INF-TO-MVR =           0.0000

            TOTAL IN =   423869082.5184              TOTAL IN =          86.0433

          OUT:                                     OUT:
          ----                                     ----
                 GWF =    24460644.0166                   GWF =           3.7063
        INFILTRATION =           0.0000          INFILTRATION =           0.0000
             REJ-INF =           0.0000               REJ-INF =           0.0000
                UZET =    70168393.2944                  UZET =          25.4374
             STORAGE =   329240045.2075               STORAGE =          56.8996
            FROM-MVR =           0.0000              FROM-MVR =           0.0000
      REJ-INF-TO-MVR =           0.0000        REJ-INF-TO-MVR =           0.0000

           TOTAL OUT =   423869082.5184             TOTAL OUT =          86.0433

            IN - OUT =       1.1921E-07              IN - OUT =      -3.4106E-13

 PERCENT DISCREPANCY =           0.00     PERCENT DISCREPANCY =          -0.00



  WATER MOVER BUDGET FOR ENTIRE MODEL AT END OF TIME STEP   15, STRESS PERIOD   3
  ------------------------------------------------------------------------------

     CUMULATIVE WATER MOVER      L**3       RATES FOR THIS TIME STEP      L**3/T
     ------------------                 ------------------------

           IN:                                      IN:
           ---                                      ---
               SFR-1 =           0.0000                 SFR-1 =           0.0000
               UZF-1 =           0.0000                 UZF-1 =           0.0000
               DRN-1 =           0.0000                 DRN-1 =           0.0000

            TOTAL IN =           0.0000              TOTAL IN =           0.0000

          OUT:                                     OUT:
          ----                                     ----
               SFR-1 =           0.0000                 SFR-1 =           0.0000
               UZF-1 =           0.0000                 UZF-1 =           0.0000
               DRN-1 =           0.0000                 DRN-1 =           0.0000

           TOTAL OUT =           0.0000             TOTAL OUT =           0.0000

            IN - OUT =           0.0000              IN - OUT =           0.0000

 PERCENT DISCREPANCY =           0.00     PERCENT DISCREPANCY =           0.00



  VOLUME BUDGET FOR ENTIRE MODEL AT END OF TIME STEP   15, STRESS PERIOD   3
  ---------------------------------------------------------------------------------------------------

     CUMULATIVE VOLUME      L**3       RATES FOR THIS TIME STEP      L**3/T          PACKAGE NAME    
     ------------------                 ------------------------                     ----------------

           IN:                                      IN:
           ---                                      ---
              STO-SS =       58911.7732                STO-SS =       7.1494E-03     STORAGE                          
              STO-SY =    35211962.3940                STO-SY =           4.9688     STORAGE                          
                 WEL =           0.0000                   WEL =           0.0000     WEL_0                            
                 DRN =           0.0000                   DRN =           0.0000     DRN-1                            
          DRN-TO-MVR =           0.0000            DRN-TO-MVR =           0.0000     DRN-1                            
                 GHB =     1956299.3445                   GHB =           0.2481     GHB_0                            
                 SFR =   340319328.0852                   SFR =          43.1448     SFR-1                            
           UZF-GWRCH =    24460644.0166             UZF-GWRCH =           3.7063     UZF-1                            
            UZF-GWET =           0.0000              UZF-GWET =           0.0000     UZF-1                            

            TOTAL IN =   402007145.6134              TOTAL IN =          52.0752

          OUT:                                     OUT:
          ----                                     ----
              STO-SS =       58513.1148                STO-SS =       2.9193E-02     STORAGE                          
              STO-SY =    25444913.5194                STO-SY =          12.1308     STORAGE                          
                 WEL =   131400000.0000                   WEL =          10.0000     WEL_0                            
                 DRN =           0.0000                   DRN =           0.0000     DRN-1                            
          DRN-TO-MVR =           0.0000            DRN-TO-MVR =           0.0000     DRN-1                            
                 GHB =     1663510.1985                   GHB =           0.2112     GHB_0                            
                 SFR =   101348972.5052                   SFR =          12.8903     SFR-1                            
           UZF-GWRCH =           0.0000             UZF-GWRCH =           0.0000     UZF-1                            
            UZF-GWET =   142091242.6649              UZF-GWET =          16.8137     UZF-1                            

           TOTAL OUT =   402007152.0028             TOTAL OUT =          52.0752

            IN - OUT =          -6.3894              IN - OUT =       1.3130E-07

 PERCENT DISCREPANCY =          -0.00     PERCENT DISCREPANCY =           0.00




         TIME SUMMARY AT END OF TIME STEP   15 IN STRESS PERIOD    3
                    SECONDS     MINUTES      HOURS       DAYS        YEARS
                    -----------------------------------------------------------
   TIME STEP LENGTH 3.14103E+05  5235.0      87.251      3.6354     9.95332E-03
 STRESS PERIOD TIME 2.62800E+06  43800.      730.00      30.417     8.32763E-02
         TOTAL TIME 7.88400E+06 1.31400E+05  2190.0      91.250     0.24983    


end timestep


start timestep kper="4" kstp="1" mode="normal"


 OUTPUT CONTROL FOR STRESS PERIOD 4 IS REPEATED USING SETTINGS FROM A PREVIOUS STRESS PERIOD.

 REUSING MVRS FROM LAST STRESS PERIOD

 REUSING SFRS FROM LAST STRESS PERIOD

end timestep


start timestep kper="4" kstp="2" mode="normal"


end timestep


start timestep kper="4" kstp="3" mode="normal"


end timestep


start timestep kper="4" kstp="4" mode="normal"


end timestep


start timestep kper="4" kstp="5" mode="normal"


end timestep


start timestep kper="4" kstp="6" mode="normal"


end timestep


start timestep kper="4" kstp="7" mode="normal"


end timestep


start timestep kper="4" kstp="8" mode="normal"


end timestep


start timestep kper="4" kstp="9" mode="normal"


end timestep


start timestep kper="4" kstp="10" mode="normal"


end timestep


start timestep kper="4" kstp="11" mode="normal"


end timestep


start timestep kper="4" kstp="12" mode="normal"


end timestep


start timestep kper="4" kstp="13" mode="normal"


end timestep


start timestep kper="4" kstp="14" mode="normal"


end timestep


start timestep kper="4" kstp="15" mode="normal"



  SFR-1 BUDGET FOR ENTIRE MODEL AT END OF TIME STEP   15, STRESS PERIOD   4
  ------------------------------------------------------------------------------

     CUMULATIVE SFR-1      L**3       RATES FOR THIS TIME STEP      L**3/T
     ------------------                 ------------------------

           IN:                                      IN:
           ---                                      ---
                 GWF =   136140433.6227                   GWF =          14.2748
            RAINFALL =           0.0000              RAINFALL =           0.0000
         EVAPORATION =           0.0000           EVAPORATION =           0.0000
              RUNOFF =           0.0000                RUNOFF =           0.0000
          EXT-INFLOW =  1944720000.0000            EXT-INFLOW =         185.0000
         EXT-OUTFLOW =           0.0000           EXT-OUTFLOW =           0.0000
             STORAGE =           0.0000               STORAGE =           0.0000
            FROM-MVR =           0.0000              FROM-MVR =           0.0000
              TO-MVR =           0.0000                TO-MVR =           0.0000

            TOTAL IN =  2080860433.6227              TOTAL IN =         199.2748

          OUT:                                     OUT:
          ----                                     ----
                 GWF =   453569062.5072                   GWF =          43.0593
            RAINFALL =           0.0000              RAINFALL =           0.0000
         EVAPORATION =           0.0000           EVAPORATION =           0.0000
              RUNOFF =           0.0000                RUNOFF =           0.0000
          EXT-INFLOW =           0.0000            EXT-INFLOW =           0.0000
         EXT-OUTFLOW =  1627291371.1155           EXT-OUTFLOW =         156.2155
             STORAGE =           0.0000               STORAGE =           0.0000
            FROM-MVR =           0.0000              FROM-MVR =           0.0000
              TO-MVR =           0.0000                TO-MVR =           0.0000

           TOTAL OUT =  2080860433.6227             TOTAL OUT =         199.2748

            IN - OUT =           0.0000              IN - OUT =           0.0000

 PERCENT DISCREPANCY =           0.00     PERCENT DISCREPANCY =           0.00



  UZF-1 BUDGET FOR ENTIRE MODEL AT END OF TIME STEP   15, STRESS PERIOD   4
  ------------------------------------------------------------------------------

     CUMULATIVE UZF-1      L**3       RATES FOR THIS TIME STEP      L**3/T
     ------------------                 ------------------------

           IN:                                      IN:
           ---                                      ---
                 GWF =           0.0000                   GWF =           0.0000
        INFILTRATION =   868619700.0000          INFILTRATION =         169.5000
             REJ-INF =           0.0000               REJ-INF =           0.0000
                UZET =           0.0000                  UZET =           0.0000
             STORAGE =     9101662.8243               STORAGE =           2.7258
            FROM-MVR =           0.0000              FROM-MVR =           0.0000
      REJ-INF-TO-MVR =           0.0000        REJ-INF-TO-MVR =           0.0000

            TOTAL IN =   877721362.8243              TOTAL IN =         172.2258

          OUT:                                     OUT:
          ----                                     ----
                 GWF =    56072804.5328                   GWF =          14.8985
        INFILTRATION =           0.0000          INFILTRATION =           0.0000
             REJ-INF =           0.0000               REJ-INF =           0.0000
                UZET =   156641345.3582                  UZET =          41.2858
             STORAGE =   665007212.9333               STORAGE =         116.0415
            FROM-MVR =           0.0000              FROM-MVR =           0.0000
      REJ-INF-TO-MVR =           0.0000        REJ-INF-TO-MVR =           0.0000

           TOTAL OUT =   877721362.8243             TOTAL OUT =         172.2258

            IN - OUT =           0.0000              IN - OUT =       2.8422E-14

 PERCENT DISCREPANCY =           0.00     PERCENT DISCREPANCY =           0.00



  WATER MOVER BUDGET FOR ENTIRE MODEL AT END OF TIME STEP   15, STRESS PERIOD   4
  ------------------------------------------------------------------------------

     CUMULATIVE WATER MOVER      L**3       RATES FOR THIS TIME STEP      L**3/T
     ------------------                 ------------------------

           IN:                                      IN:
           ---                                      ---
               SFR-1 =           0.0000                 SFR-1 =           0.0000
               UZF-1 =           0.0000                 UZF-1 =           0.0000
               DRN-1 =           0.0000                 DRN-1 =           0.0000

            TOTAL IN =           0.0000              TOTAL IN =           0.0000

          OUT:                                     OUT:
          ----                                     ----
               SFR-1 =           0.0000                 SFR-1 =           0.0000
               UZF-1 =           0.0000                 UZF-1 =           0.0000
               DRN-1 =           0.0000                 DRN-1 =           0.0000

           TOTAL OUT =           0.0000             TOTAL OUT =           0.0000

            IN - OUT =           0.0000              IN - OUT =           0.0000

 PERCENT DISCREPANCY =           0.00     PERCENT DISCREPANCY =           0.00



  VOLUME BUDGET FOR ENTIRE MODEL AT END OF TIME STEP   15, STRESS PERIOD   4
  ---------------------------------------------------------------------------------------------------

     CUMULATIVE VOLUME      L**3       RATES FOR THIS TIME STEP      L**3/T          PACKAGE NAME    
     ------------------                 ------------------------                     ----------------

           IN:                                      IN:
           ---                                      ---
              STO-SS =       75456.9915                STO-SS =       5.6232E-03     STORAGE                          
              STO-SY =    46948575.0880                STO-SY =           4.0687     STORAGE                          
                 WEL =           0.0000                   WEL =           0.0000     WEL_0                            
                 DRN =           0.0000                   DRN =           0.0000     DRN-1                            
          DRN-TO-MVR =           0.0000            DRN-TO-MVR =           0.0000     DRN-1                            
                 GHB =     2608172.2650                   GHB =           0.2480     GHB_0                            
                 SFR =   453569063.8244                   SFR =          43.0593     SFR-1                            
           UZF-GWRCH =    56072804.5328             UZF-GWRCH =          14.8985     UZF-1                            
            UZF-GWET =           0.0000              UZF-GWET =           0.0000     UZF-1                            

            TOTAL IN =   559274072.7017              TOTAL IN =          62.2801

          OUT:                                     OUT:
          ----                                     ----
              STO-SS =      189273.0444                STO-SS =       4.7935E-02     STORAGE                          
              STO-SY =    76503530.1477                STO-SY =          20.7062     STORAGE                          
                 WEL =   157680000.0000                   WEL =          10.0000     WEL_0                            
                 DRN =           0.0000                   DRN =           0.0000     DRN-1                            
          DRN-TO-MVR =           0.0000            DRN-TO-MVR =           0.0000     DRN-1                            
                 GHB =     2218957.9107                   GHB =           0.2116     GHB_0                            
                 SFR =   136140433.0624                   SFR =          14.2748     SFR-1                            
           UZF-GWRCH =           0.0000             UZF-GWRCH =           0.0000     UZF-1                            
            UZF-GWET =   186541882.8707              UZF-GWET =          17.0395     UZF-1                            

           TOTAL OUT =   559274077.0360             TOTAL OUT =          62.2801

            IN - OUT =          -4.3343              IN - OUT =       1.4369E-07

 PERCENT DISCREPANCY =          -0.00     PERCENT DISCREPANCY =           0.00




         TIME SUMMARY AT END OF TIME STEP   15 IN STRESS PERIOD    4
                    SECONDS     MINUTES      HOURS       DAYS        YEARS
                    -----------------------------------------------------------
   TIME STEP LENGTH 3.14103E+05  5235.0      87.251      3.6354     9.95332E-03
 STRESS PERIOD TIME 2.62800E+06  43800.      730.00      30.417     8.32763E-02
         TOTAL TIME 1.05120E+07 1.75200E+05  2920.0      121.67     0.33311    


end timestep


start timestep kper="5" kstp="1" mode="normal"


 OUTPUT CONTROL FOR STRESS PERIOD 5 IS REPEATED USING SETTINGS FROM A PREVIOUS STRESS PERIOD.

 REUSING MVRS FROM LAST STRESS PERIOD

 REUSING SFRS FROM LAST STRESS PERIOD

end timestep


start timestep kper="5" kstp="2" mode="normal"


end timestep


start timestep kper="5" kstp="3" mode="normal"


end timestep


start timestep kper="5" kstp="4" mode="normal"


end timestep


start timestep kper="5" kstp="5" mode="normal"


end timestep


start timestep kper="5" kstp="6" mode="normal"


end timestep


start timestep kper="5" kstp="7" mode="normal"


end timestep


start timestep kper="5" kstp="8" mode="normal"


end timestep


start timestep kper="5" kstp="9" mode="normal"


end timestep


start timestep kper="5" kstp="10" mode="normal"


end timestep


start timestep kper="5" kstp="11" mode="normal"


end timestep


start timestep kper="5" kstp="12" mode="normal"


end timestep


start timestep kper="5" kstp="13" mode="normal"


end timestep


start timestep kper="5" kstp="14" mode="normal"


end timestep


start timestep kper="5" kstp="15" mode="normal"



  SFR-1 BUDGET FOR ENTIRE MODEL AT END OF TIME STEP   15, STRESS PERIOD   5
  ------------------------------------------------------------------------------

     CUMULATIVE SFR-1      L**3       RATES FOR THIS TIME STEP      L**3/T
     ------------------                 ------------------------

           IN:                                      IN:
           ---                                      ---
                 GWF =   174488551.9163                   GWF =          14.1484
            RAINFALL =           0.0000              RAINFALL =           0.0000
         EVAPORATION =           0.0000           EVAPORATION =           0.0000
              RUNOFF =           0.0000                RUNOFF =           0.0000
          EXT-INFLOW =  2430900000.0000            EXT-INFLOW =         185.0000
         EXT-OUTFLOW =           0.0000           EXT-OUTFLOW =           0.0000
             STORAGE =           0.0000               STORAGE =           0.0000
            FROM-MVR =           0.0000              FROM-MVR =           0.0000
              TO-MVR =           0.0000                TO-MVR =           0.0000

            TOTAL IN =  2605388551.9163              TOTAL IN =         199.1484

          OUT:                                     OUT:
          ----                                     ----
                 GWF =   566325834.2675                   GWF =          42.7916
            RAINFALL =           0.0000              RAINFALL =           0.0000
         EVAPORATION =           0.0000           EVAPORATION =           0.0000
              RUNOFF =           0.0000                RUNOFF =           0.0000
          EXT-INFLOW =           0.0000            EXT-INFLOW =           0.0000
         EXT-OUTFLOW =  2039062717.6488           EXT-OUTFLOW =         156.3568
             STORAGE =           0.0000               STORAGE =           0.0000
            FROM-MVR =           0.0000              FROM-MVR =           0.0000
              TO-MVR =           0.0000                TO-MVR =           0.0000

           TOTAL OUT =  2605388551.9163             TOTAL OUT =         199.1484

            IN - OUT =           0.0000              IN - OUT =           0.0000

 PERCENT DISCREPANCY =           0.00     PERCENT DISCREPANCY =           0.00



  UZF-1 BUDGET FOR ENTIRE MODEL AT END OF TIME STEP   15, STRESS PERIOD   5
  ------------------------------------------------------------------------------

     CUMULATIVE UZF-1      L**3       RATES FOR THIS TIME STEP      L**3/T
     ------------------                 ------------------------

           IN:                                      IN:
           ---                                      ---
                 GWF =           0.0000                   GWF =           0.0000
        INFILTRATION =   979981200.0000          INFILTRATION =          42.3750
             REJ-INF =           0.0000               REJ-INF =           0.0000
                UZET =           0.0000                  UZET =           0.0000
             STORAGE =    46020662.2071               STORAGE =          17.3308
            FROM-MVR =           0.0000              FROM-MVR =           0.0000
      REJ-INF-TO-MVR =           0.0000        REJ-INF-TO-MVR =           0.0000

            TOTAL IN =  1026001862.2071              TOTAL IN =          59.7058

          OUT:                                     OUT:
          ----                                     ----
                 GWF =    66873633.8887                   GWF =           1.1569
        INFILTRATION =           0.0000          INFILTRATION =           0.0000
             REJ-INF =           0.0000               REJ-INF =           0.0000
                UZET =   290691036.5667                  UZET =          57.7102
             STORAGE =   668437190.8994               STORAGE =           0.8387
            FROM-MVR =           0.0000              FROM-MVR =           0.0000
      REJ-INF-TO-MVR =           0.0000        REJ-INF-TO-MVR =           0.0000

           TOTAL OUT =  1026001861.3549             TOTAL OUT =          59.7058

            IN - OUT =           0.8522              IN - OUT =      -6.9633E-13

 PERCENT DISCREPANCY =           0.00     PERCENT DISCREPANCY =          -0.00



  WATER MOVER BUDGET FOR ENTIRE MODEL AT END OF TIME STEP   15, STRESS PERIOD   5
  ------------------------------------------------------------------------------

     CUMULATIVE WATER MOVER      L**3       RATES FOR THIS TIME STEP      L**3/T
     ------------------                 ------------------------

           IN:                                      IN:
           ---                                      ---
               SFR-1 =           0.0000                 SFR-1 =           0.0000
               UZF-1 =           0.0000                 UZF-1 =           0.0000
               DRN-1 =           0.0000                 DRN-1 =           0.0000

            TOTAL IN =           0.0000              TOTAL IN =           0.0000

          OUT:                                     OUT:
          ----                                     ----
               SFR-1 =           0.0000                 SFR-1 =           0.0000
               UZF-1 =           0.0000                 UZF-1 =           0.0000
               DRN-1 =           0.0000                 DRN-1 =           0.0000

           TOTAL OUT =           0.0000             TOTAL OUT =           0.0000

            IN - OUT =           0.0000              IN - OUT =           0.0000

 PERCENT DISCREPANCY =           0.00     PERCENT DISCREPANCY =           0.00



  VOLUME BUDGET FOR ENTIRE MODEL AT END OF TIME STEP   15, STRESS PERIOD   5
  ---------------------------------------------------------------------------------------------------

     CUMULATIVE VOLUME      L**3       RATES FOR THIS TIME STEP      L**3/T          PACKAGE NAME    
     ------------------                 ------------------------                     ----------------

           IN:                                      IN:
           ---                                      ---
              STO-SS =      197481.9702                STO-SS =       4.2245E-02     STORAGE                          
              STO-SY =   100398841.9135                STO-SY =          18.9769     STORAGE                          
                 WEL =           0.0000                   WEL =           0.0000     WEL_0                            
                 DRN =           0.0000                   DRN =           0.0000     DRN-1                            
          DRN-TO-MVR =           0.0000            DRN-TO-MVR =           0.0000     DRN-1                            
                 GHB =     3259596.0032                   GHB =           0.2478     GHB_0                            
                 SFR =   566325835.5944                   SFR =          42.7916     SFR-1                            
           UZF-GWRCH =    66873633.8887             UZF-GWRCH =           1.1569     UZF-1                            
            UZF-GWET =           0.0000              UZF-GWET =           0.0000     UZF-1                            

            TOTAL IN =   737055389.3700              TOTAL IN =          63.2154

          OUT:                                     OUT:
          ----                                     ----
              STO-SS =      222530.5739                STO-SS =       5.1096E-03     STORAGE                          
              STO-SY =    92908824.7779                STO-SY =           2.7551     STORAGE                          
                 WEL =   236520000.0000                   WEL =          30.0000     WEL_0                            
                 DRN =           0.0000                   DRN =           0.0000     DRN-1                            
          DRN-TO-MVR =           0.0000            DRN-TO-MVR =           0.0000     DRN-1                            
                 GHB =     2776226.1739                   GHB =           0.2124     GHB_0                            
                 SFR =   174488551.3336                   SFR =          14.1484     SFR-1                            
           UZF-GWRCH =           0.0000             UZF-GWRCH =           0.0000     UZF-1                            
            UZF-GWET =   230139260.5818              UZF-GWET =          16.0943     UZF-1                            

           TOTAL OUT =   737055393.4411             TOTAL OUT =          63.2154

            IN - OUT =          -4.0711              IN - OUT =      -7.0061E-08

 PERCENT DISCREPANCY =          -0.00     PERCENT DISCREPANCY =          -0.00




         TIME SUMMARY AT END OF TIME STEP   15 IN STRESS PERIOD    5
                    SECONDS     MINUTES      HOURS       DAYS        YEARS
                    -----------------------------------------------------------
   TIME STEP LENGTH 3.14103E+05  5235.0      87.251      3.6354     9.95332E-03
 STRESS PERIOD TIME 2.62800E+06  43800.      730.00      30.417     8.32763E-02
         TOTAL TIME 1.31400E+07 2.19000E+05  3650.0      152.08     0.41638    


end timestep


start timestep kper="6" kstp="1" mode="normal"


 OUTPUT CONTROL FOR STRESS PERIOD 6 IS REPEATED USING SETTINGS FROM A PREVIOUS STRESS PERIOD.

 REUSING MVRS FROM LAST STRESS PERIOD

 REUSING SFRS FROM LAST STRESS PERIOD

end timestep


start timestep kper="6" kstp="2" mode="normal"


end timestep


start timestep kper="6" kstp="3" mode="normal"


end timestep


start timestep kper="6" kstp="4" mode="normal"


end timestep


start timestep kper="6" kstp="5" mode="normal"


end timestep


start timestep kper="6" kstp="6" mode="normal"


end timestep


start timestep kper="6" kstp="7" mode="normal"


end timestep


start timestep kper="6" kstp="8" mode="normal"


end timestep


start timestep kper="6" kstp="9" mode="normal"


end timestep


start timestep kper="6" kstp="10" mode="normal"


end timestep


start timestep kper="6" kstp="11" mode="normal"


end timestep


start timestep kper="6" kstp="12" mode="normal"


end timestep


start timestep kper="6" kstp="13" mode="normal"


end timestep


start timestep kper="6" kstp="14" mode="normal"


end timestep


start timestep kper="6" kstp="15" mode="normal"



  SFR-1 BUDGET FOR ENTIRE MODEL AT END OF TIME STEP   15, STRESS PERIOD   6
  ------------------------------------------------------------------------------

     CUMULATIVE SFR-1      L**3       RATES FOR THIS TIME STEP      L**3/T
     ------------------                 ------------------------

           IN:                                      IN:
           ---                                      ---
                 GWF =   210555365.4087                   GWF =          13.5820
            RAINFALL =           0.0000              RAINFALL =           0.0000
         EVAPORATION =           0.0000           EVAPORATION =           0.0000
              RUNOFF =           0.0000                RUNOFF =           0.0000
          EXT-INFLOW =  2917080000.0000            EXT-INFLOW =         185.0000
         EXT-OUTFLOW =           0.0000           EXT-OUTFLOW =           0.0000
             STORAGE =           0.0000               STORAGE =           0.0000
            FROM-MVR =           0.0000              FROM-MVR =           0.0000
              TO-MVR =           0.0000                TO-MVR =           0.0000

            TOTAL IN =  3127635365.4087              TOTAL IN =         198.5820

          OUT:                                     OUT:
          ----                                     ----
                 GWF =   677857154.2240                   GWF =          42.4497
            RAINFALL =           0.0000              RAINFALL =           0.0000
         EVAPORATION =           0.0000           EVAPORATION =           0.0000
              RUNOFF =           0.0000                RUNOFF =           0.0000
          EXT-INFLOW =           0.0000            EXT-INFLOW =           0.0000
         EXT-OUTFLOW =  2449778211.1847           EXT-OUTFLOW =         156.1323
             STORAGE =           0.0000               STORAGE =           0.0000
            FROM-MVR =           0.0000              FROM-MVR =           0.0000
              TO-MVR =           0.0000                TO-MVR =           0.0000

           TOTAL OUT =  3127635365.4087             TOTAL OUT =         198.5820

            IN - OUT =      -4.7684E-07              IN - OUT =           0.0000

 PERCENT DISCREPANCY =          -0.00     PERCENT DISCREPANCY =           0.00



  UZF-1 BUDGET FOR ENTIRE MODEL AT END OF TIME STEP   15, STRESS PERIOD   6
  ------------------------------------------------------------------------------

     CUMULATIVE UZF-1      L**3       RATES FOR THIS TIME STEP      L**3/T
     ------------------                 ------------------------

           IN:                                      IN:
           ---                                      ---
                 GWF =           0.0000                   GWF =           0.0000
        INFILTRATION =  1202704200.0000          INFILTRATION =          84.7500
             REJ-INF =           0.0000               REJ-INF =           0.0000
                UZET =           0.0000                  UZET =           0.0000
             STORAGE =    48821463.5085               STORAGE =           1.3959
            FROM-MVR =           0.0000              FROM-MVR =           0.0000
      REJ-INF-TO-MVR =           0.0000        REJ-INF-TO-MVR =           0.0000

            TOTAL IN =  1251525663.5085              TOTAL IN =          86.1459

          OUT:                                     OUT:
          ----                                     ----
                 GWF =    76456360.3226                   GWF =           5.3959
        INFILTRATION =           0.0000          INFILTRATION =           0.0000
             REJ-INF =           0.0000               REJ-INF =           0.0000
                UZET =   451511011.6383                  UZET =          63.2825
             STORAGE =   723558290.6954               STORAGE =          17.4674
            FROM-MVR =           0.0000              FROM-MVR =           0.0000
      REJ-INF-TO-MVR =           0.0000        REJ-INF-TO-MVR =           0.0000

           TOTAL OUT =  1251525662.6563             TOTAL OUT =          86.1459

            IN - OUT =           0.8522              IN - OUT =       1.2790E-13

 PERCENT DISCREPANCY =           0.00     PERCENT DISCREPANCY =           0.00



  WATER MOVER BUDGET FOR ENTIRE MODEL AT END OF TIME STEP   15, STRESS PERIOD   6
  ------------------------------------------------------------------------------

     CUMULATIVE WATER MOVER      L**3       RATES FOR THIS TIME STEP      L**3/T
     ------------------                 ------------------------

           IN:                                      IN:
           ---                                      ---
               SFR-1 =           0.0000                 SFR-1 =           0.0000
               UZF-1 =           0.0000                 UZF-1 =           0.0000
               DRN-1 =           0.0000                 DRN-1 =           0.0000

            TOTAL IN =           0.0000              TOTAL IN =           0.0000

          OUT:                                     OUT:
          ----                                     ----
               SFR-1 =           0.0000                 SFR-1 =           0.0000
               UZF-1 =           0.0000                 UZF-1 =           0.0000
               DRN-1 =           0.0000                 DRN-1 =           0.0000

           TOTAL OUT =           0.0000             TOTAL OUT =           0.0000

            IN - OUT =           0.0000              IN - OUT =           0.0000

 PERCENT DISCREPANCY =           0.00     PERCENT DISCREPANCY =           0.00



  VOLUME BUDGET FOR ENTIRE MODEL AT END OF TIME STEP   15, STRESS PERIOD   6
  ---------------------------------------------------------------------------------------------------

     CUMULATIVE VOLUME      L**3       RATES FOR THIS TIME STEP      L**3/T          PACKAGE NAME    
     ------------------                 ------------------------                     ----------------

           IN:                                      IN:
           ---                                      ---
              STO-SS =      222620.9743                STO-SS =       5.0606E-03     STORAGE                          
              STO-SY =   114504314.5663                STO-SY =           3.7382     STORAGE                          
                 WEL =           0.0000                   WEL =           0.0000     WEL_0                            
                 DRN =           0.0000                   DRN =           0.0000     DRN-1                            
          DRN-TO-MVR =           0.0000            DRN-TO-MVR =           0.0000     DRN-1                            
                 GHB =     3910601.0589                   GHB =           0.2477     GHB_0                            
                 SFR =   677857155.5704                   SFR =          42.4497     SFR-1                            
           UZF-GWRCH =    76456360.3226             UZF-GWRCH =           5.3959     UZF-1                            
            UZF-GWET =           0.0000              UZF-GWET =           0.0000     UZF-1                            

            TOTAL IN =   872951052.4925              TOTAL IN =          51.8366

          OUT:                                     OUT:
          ----                                     ----
              STO-SS =      351920.6716                STO-SS =       5.0633E-02     STORAGE                          
              STO-SY =   150222045.2286                STO-SY =          22.0898     STORAGE                          
                 WEL =   236520000.0000                   WEL =           0.0000     WEL_0                            
                 DRN =           0.0000                   DRN =           0.0000     DRN-1                            
          DRN-TO-MVR =           0.0000            DRN-TO-MVR =           0.0000     DRN-1                            
                 GHB =     3335000.2268                   GHB =           0.2128     GHB_0                            
                 SFR =   210555364.8263                   SFR =          13.5820     SFR-1                            
           UZF-GWRCH =           0.0000             UZF-GWRCH =           0.0000     UZF-1                            
            UZF-GWET =   271966725.8838              UZF-GWET =          15.9014     UZF-1                            

           TOTAL OUT =   872951056.8370             TOTAL OUT =          51.8366

            IN - OUT =          -4.3445              IN - OUT =       8.0424E-08

 PERCENT DISCREPANCY =          -0.00     PERCENT DISCREPANCY =           0.00




         TIME SUMMARY AT END OF TIME STEP   15 IN STRESS PERIOD    6
                    SECONDS     MINUTES      HOURS       DAYS        YEARS
                    -----------------------------------------------------------
   TIME STEP LENGTH 3.14103E+05  5235.0      87.251      3.6354     9.95332E-03
 STRESS PERIOD TIME 2.62800E+06  43800.      730.00      30.417     8.32763E-02
         TOTAL TIME 1.57680E+07 2.62800E+05  4380.0      182.50     0.49966    


end timestep


start timestep kper="7" kstp="1" mode="normal"


 OUTPUT CONTROL FOR STRESS PERIOD 7 IS REPEATED USING SETTINGS FROM A PREVIOUS STRESS PERIOD.

 REUSING MVRS FROM LAST STRESS PERIOD

 REUSING SFRS FROM LAST STRESS PERIOD

end timestep


start timestep kper="7" kstp="2" mode="normal"


end timestep


start timestep kper="7" kstp="3" mode="normal"


end timestep


start timestep kper="7" kstp="4" mode="normal"


end timestep


start timestep kper="7" kstp="5" mode="normal"


end timestep


start timestep kper="7" kstp="6" mode="normal"


end timestep


start timestep kper="7" kstp="7" mode="normal"


end timestep


start timestep kper="7" kstp="8" mode="normal"


end timestep


start timestep kper="7" kstp="9" mode="normal"


end timestep


start timestep kper="7" kstp="10" mode="normal"


end timestep


start timestep kper="7" kstp="11" mode="normal"


end timestep


start timestep kper="7" kstp="12" mode="normal"


end timestep


start timestep kper="7" kstp="13" mode="normal"


end timestep


start timestep kper="7" kstp="14" mode="normal"


end timestep


start timestep kper="7" kstp="15" mode="normal"



  SFR-1 BUDGET FOR ENTIRE MODEL AT END OF TIME STEP   15, STRESS PERIOD   7
  ------------------------------------------------------------------------------

     CUMULATIVE SFR-1      L**3       RATES FOR THIS TIME STEP      L**3/T
     ------------------                 ------------------------

           IN:                                      IN:
           ---                                      ---
                 GWF =   247132013.4710                   GWF =          13.9798
            RAINFALL =           0.0000              RAINFALL =           0.0000
         EVAPORATION =           0.0000           EVAPORATION =           0.0000
              RUNOFF =           0.0000                RUNOFF =           0.0000
          EXT-INFLOW =  3403260000.0000            EXT-INFLOW =         185.0000
         EXT-OUTFLOW =           0.0000           EXT-OUTFLOW =           0.0000
             STORAGE =           0.0000               STORAGE =           0.0000
            FROM-MVR =           0.0000              FROM-MVR =           0.0000
              TO-MVR =           0.0000                TO-MVR =           0.0000

            TOTAL IN =  3650392013.4710              TOTAL IN =         198.9798

          OUT:                                     OUT:
          ----                                     ----
                 GWF =   789627452.1244                   GWF =          42.5729
            RAINFALL =           0.0000              RAINFALL =           0.0000
         EVAPORATION =           0.0000           EVAPORATION =           0.0000
              RUNOFF =           0.0000                RUNOFF =           0.0000
          EXT-INFLOW =           0.0000            EXT-INFLOW =           0.0000
         EXT-OUTFLOW =  2860764561.3466           EXT-OUTFLOW =         156.4068
             STORAGE =           0.0000               STORAGE =           0.0000
            FROM-MVR =           0.0000              FROM-MVR =           0.0000
              TO-MVR =           0.0000                TO-MVR =           0.0000

           TOTAL OUT =  3650392013.4710             TOTAL OUT =         198.9798

            IN - OUT =       4.7684E-07              IN - OUT =           0.0000

 PERCENT DISCREPANCY =           0.00     PERCENT DISCREPANCY =           0.00



  UZF-1 BUDGET FOR ENTIRE MODEL AT END OF TIME STEP   15, STRESS PERIOD   7
  ------------------------------------------------------------------------------

     CUMULATIVE UZF-1      L**3       RATES FOR THIS TIME STEP      L**3/T
     ------------------                 ------------------------

           IN:                                      IN:
           ---                                      ---
                 GWF =           0.0000                   GWF =           0.0000
        INFILTRATION =  1269521100.0000          INFILTRATION =          25.4250
             REJ-INF =           0.0000               REJ-INF =           0.0000
                UZET =           0.0000                  UZET =           0.0000
             STORAGE =   160147750.4997               STORAGE =          40.3816
            FROM-MVR =           0.0000              FROM-MVR =           0.0000
      REJ-INF-TO-MVR =           0.0000        REJ-INF-TO-MVR =           0.0000

            TOTAL IN =  1429668850.4996              TOTAL IN =          65.8066

          OUT:                                     OUT:
          ----                                     ----
                 GWF =    85432162.9553                   GWF =           1.0119
        INFILTRATION =           0.0000          INFILTRATION =           0.0000
             REJ-INF =           0.0000               REJ-INF =           0.0000
                UZET =   620629056.1760                  UZET =          64.6976
             STORAGE =   723607629.9077               STORAGE =       9.7080E-02
            FROM-MVR =           0.0000              FROM-MVR =           0.0000
      REJ-INF-TO-MVR =           0.0000        REJ-INF-TO-MVR =           0.0000

           TOTAL OUT =  1429668849.0391             TOTAL OUT =          65.8066

            IN - OUT =           1.4606              IN - OUT =      -7.9468E-08

 PERCENT DISCREPANCY =           0.00     PERCENT DISCREPANCY =          -0.00



  WATER MOVER BUDGET FOR ENTIRE MODEL AT END OF TIME STEP   15, STRESS PERIOD   7
  ------------------------------------------------------------------------------

     CUMULATIVE WATER MOVER      L**3       RATES FOR THIS TIME STEP      L**3/T
     ------------------                 ------------------------

           IN:                                      IN:
           ---                                      ---
               SFR-1 =           0.0000                 SFR-1 =           0.0000
               UZF-1 =           0.0000                 UZF-1 =           0.0000
               DRN-1 =           0.0000                 DRN-1 =           0.0000

            TOTAL IN =           0.0000              TOTAL IN =           0.0000

          OUT:                                     OUT:
          ----                                     ----
               SFR-1 =           0.0000                 SFR-1 =           0.0000
               UZF-1 =           0.0000                 UZF-1 =           0.0000
               DRN-1 =           0.0000                 DRN-1 =           0.0000

           TOTAL OUT =           0.0000             TOTAL OUT =           0.0000

            IN - OUT =           0.0000              IN - OUT =           0.0000

 PERCENT DISCREPANCY =           0.00     PERCENT DISCREPANCY =           0.00



  VOLUME BUDGET FOR ENTIRE MODEL AT END OF TIME STEP   15, STRESS PERIOD   7
  ---------------------------------------------------------------------------------------------------

     CUMULATIVE VOLUME      L**3       RATES FOR THIS TIME STEP      L**3/T          PACKAGE NAME    
     ------------------                 ------------------------                     ----------------

           IN:                                      IN:
           ---                                      ---
              STO-SS =      271766.4102                STO-SS =       1.9099E-02     STORAGE                          
              STO-SY =   138605430.3772                STO-SY =           9.0560     STORAGE                          
                 WEL =           0.0000                   WEL =           0.0000     WEL_0                            
                 DRN =           0.0000                   DRN =           0.0000     DRN-1                            
          DRN-TO-MVR =           0.0000            DRN-TO-MVR =           0.0000     DRN-1                            
                 GHB =     4561413.0220                   GHB =           0.2476     GHB_0                            
                 SFR =   789627453.4523                   SFR =          42.5729     SFR-1                            
           UZF-GWRCH =    85432162.9553             UZF-GWRCH =           1.0119     UZF-1                            
            UZF-GWET =           0.0000              UZF-GWET =           0.0000     UZF-1                            

            TOTAL IN =  1018498226.2170              TOTAL IN =          52.9076

          OUT:                                     OUT:
          ----                                     ----
              STO-SS =      382079.4082                STO-SS =       5.7318E-03     STORAGE                          
              STO-SY =   164265352.9490                STO-SY =           2.8593     STORAGE                          
                 WEL =   289080000.0000                   WEL =          20.0000     WEL_0                            
                 DRN =           0.0000                   DRN =           0.0000     DRN-1                            
[...]


end timestep


start timestep kper="11" kstp="10" mode="normal"


end timestep


start timestep kper="11" kstp="11" mode="normal"


end timestep


start timestep kper="11" kstp="12" mode="normal"


end timestep


start timestep kper="11" kstp="13" mode="normal"


end timestep


start timestep kper="11" kstp="14" mode="normal"


end timestep


start timestep kper="11" kstp="15" mode="normal"



  SFR-1 BUDGET FOR ENTIRE MODEL AT END OF TIME STEP   15, STRESS PERIOD  11
  ------------------------------------------------------------------------------

     CUMULATIVE SFR-1      L**3       RATES FOR THIS TIME STEP      L**3/T
     ------------------                 ------------------------

           IN:                                      IN:
           ---                                      ---
                 GWF =   389606943.9417                   GWF =          13.4929
            RAINFALL =           0.0000              RAINFALL =           0.0000
         EVAPORATION =           0.0000           EVAPORATION =           0.0000
              RUNOFF =           0.0000                RUNOFF =           0.0000
          EXT-INFLOW =  5347980000.0000            EXT-INFLOW =         185.0000
         EXT-OUTFLOW =           0.0000           EXT-OUTFLOW =           0.0000
             STORAGE =           0.0000               STORAGE =           0.0000
            FROM-MVR =           0.0000              FROM-MVR =           0.0000
              TO-MVR =           0.0000                TO-MVR =           0.0000

            TOTAL IN =  5737586943.9417              TOTAL IN =         198.4929

          OUT:                                     OUT:
          ----                                     ----
                 GWF =  1236902166.3491                   GWF =          42.6255
            RAINFALL =           0.0000              RAINFALL =           0.0000
         EVAPORATION =           0.0000           EVAPORATION =           0.0000
              RUNOFF =           0.0000                RUNOFF =           0.0000
          EXT-INFLOW =           0.0000            EXT-INFLOW =           0.0000
         EXT-OUTFLOW =  4500684777.5926           EXT-OUTFLOW =         155.8675
             STORAGE =           0.0000               STORAGE =           0.0000
            FROM-MVR =           0.0000              FROM-MVR =           0.0000
              TO-MVR =           0.0000                TO-MVR =           0.0000

           TOTAL OUT =  5737586943.9417             TOTAL OUT =         198.4929

            IN - OUT =           0.0000              IN - OUT =      -2.8422E-14

 PERCENT DISCREPANCY =           0.00     PERCENT DISCREPANCY =          -0.00



  UZF-1 BUDGET FOR ENTIRE MODEL AT END OF TIME STEP   15, STRESS PERIOD  11
  ------------------------------------------------------------------------------

     CUMULATIVE UZF-1      L**3       RATES FOR THIS TIME STEP      L**3/T
     ------------------                 ------------------------

           IN:                                      IN:
           ---                                      ---
                 GWF =           0.0000                   GWF =           0.0000
        INFILTRATION =  1514516400.0000          INFILTRATION =           8.4750
             REJ-INF =           0.0000               REJ-INF =           0.0000
                UZET =           0.0000                  UZET =           0.0000
             STORAGE =   506263030.1251               STORAGE =          28.8823
            FROM-MVR =           0.0000              FROM-MVR =           0.0000
      REJ-INF-TO-MVR =           0.0000        REJ-INF-TO-MVR =           0.0000

            TOTAL IN =  2020779430.1251              TOTAL IN =          37.3573

          OUT:                                     OUT:
          ----                                     ----
                 GWF =    92615054.3790                   GWF =           0.1058
        INFILTRATION =           0.0000          INFILTRATION =           0.0000
             REJ-INF =           0.0000               REJ-INF =           0.0000
                UZET =  1201143714.7657                  UZET =          37.2515
             STORAGE =   727020663.7236               STORAGE =           0.0000
            FROM-MVR =           0.0000              FROM-MVR =           0.0000
      REJ-INF-TO-MVR =           0.0000        REJ-INF-TO-MVR =           0.0000

           TOTAL OUT =  2020779432.8683             TOTAL OUT =          37.3573

            IN - OUT =          -2.7433              IN - OUT =      -2.6136E-06

 PERCENT DISCREPANCY =          -0.00     PERCENT DISCREPANCY =          -0.00



  WATER MOVER BUDGET FOR ENTIRE MODEL AT END OF TIME STEP   15, STRESS PERIOD  11
  ------------------------------------------------------------------------------

     CUMULATIVE WATER MOVER      L**3       RATES FOR THIS TIME STEP      L**3/T
     ------------------                 ------------------------

           IN:                                      IN:
           ---                                      ---
               SFR-1 =           0.0000                 SFR-1 =           0.0000
               UZF-1 =           0.0000                 UZF-1 =           0.0000
               DRN-1 =           0.0000                 DRN-1 =           0.0000

            TOTAL IN =           0.0000              TOTAL IN =           0.0000

          OUT:                                     OUT:
          ----                                     ----
               SFR-1 =           0.0000                 SFR-1 =           0.0000
               UZF-1 =           0.0000                 UZF-1 =           0.0000
               DRN-1 =           0.0000                 DRN-1 =           0.0000

           TOTAL OUT =           0.0000             TOTAL OUT =           0.0000

            IN - OUT =           0.0000              IN - OUT =           0.0000

 PERCENT DISCREPANCY =           0.00     PERCENT DISCREPANCY =           0.00



  VOLUME BUDGET FOR ENTIRE MODEL AT END OF TIME STEP   15, STRESS PERIOD  11
  ---------------------------------------------------------------------------------------------------

     CUMULATIVE VOLUME      L**3       RATES FOR THIS TIME STEP      L**3/T          PACKAGE NAME    
     ------------------                 ------------------------                     ----------------

           IN:                                      IN:
           ---                                      ---
              STO-SS =      435442.4278                STO-SS =       3.8787E-02     STORAGE                          
              STO-SY =   222673874.6689                STO-SY =          18.3360     STORAGE                          
                 WEL =           0.0000                   WEL =           0.0000     WEL_0                            
                 DRN =           0.0000                   DRN =           0.0000     DRN-1                            
          DRN-TO-MVR =           0.0000            DRN-TO-MVR =           0.0000     DRN-1                            
                 GHB =     7164709.0482                   GHB =           0.2478     GHB_0                            
                 SFR =  1236902167.8162                   SFR =          42.6255     SFR-1                            
           UZF-GWRCH =    92615054.3790             UZF-GWRCH =           0.1058     UZF-1                            
            UZF-GWET =           0.0000              UZF-GWET =           0.0000     UZF-1                            

            TOTAL IN =  1559791248.3400              TOTAL IN =          61.3538

          OUT:                                     OUT:
          ----                                     ----
              STO-SS =      661654.9721                STO-SS =       2.7347E-03     STORAGE                          
              STO-SY =   287970913.1255                STO-SY =           1.3873     STORAGE                          
                 WEL =   394200000.0000                   WEL =          30.0000     WEL_0                            
                 DRN =           0.0000                   DRN =           0.0000     DRN-1                            
          DRN-TO-MVR =           0.0000            DRN-TO-MVR =           0.0000     DRN-1                            
                 GHB =     6133777.8164                   GHB =           0.2128     GHB_0                            
                 SFR =   389606943.3641                   SFR =          13.4929     SFR-1                            
           UZF-GWRCH =           0.0000             UZF-GWRCH =           0.0000     UZF-1                            
            UZF-GWET =   481217963.9563              UZF-GWET =          16.2579     UZF-1                            

           TOTAL OUT =  1559791253.2345             TOTAL OUT =          61.3538

            IN - OUT =          -4.8944              IN - OUT =      -3.6280E-08

 PERCENT DISCREPANCY =          -0.00     PERCENT DISCREPANCY =          -0.00




         TIME SUMMARY AT END OF TIME STEP   15 IN STRESS PERIOD   11
                    SECONDS     MINUTES      HOURS       DAYS        YEARS
                    -----------------------------------------------------------
   TIME STEP LENGTH 3.14103E+05  5235.0      87.251      3.6354     9.95332E-03
 STRESS PERIOD TIME 2.62800E+06  43800.      730.00      30.417     8.32763E-02
         TOTAL TIME 2.89080E+07 4.81800E+05  8030.0      334.58     0.91604    


end timestep


start timestep kper="12" kstp="1" mode="normal"


 OUTPUT CONTROL FOR STRESS PERIOD 12 IS REPEATED USING SETTINGS FROM A PREVIOUS STRESS PERIOD.

 REUSING MVRS FROM LAST STRESS PERIOD

 REUSING SFRS FROM LAST STRESS PERIOD

end timestep


start timestep kper="12" kstp="2" mode="normal"


end timestep


start timestep kper="12" kstp="3" mode="normal"


end timestep


start timestep kper="12" kstp="4" mode="normal"


end timestep


start timestep kper="12" kstp="5" mode="normal"


end timestep


start timestep kper="12" kstp="6" mode="normal"


end timestep


start timestep kper="12" kstp="7" mode="normal"


end timestep


start timestep kper="12" kstp="8" mode="normal"


end timestep


start timestep kper="12" kstp="9" mode="normal"


end timestep


start timestep kper="12" kstp="10" mode="normal"


end timestep


start timestep kper="12" kstp="11" mode="normal"


end timestep


start timestep kper="12" kstp="12" mode="normal"


end timestep


start timestep kper="12" kstp="13" mode="normal"


end timestep


start timestep kper="12" kstp="14" mode="normal"


end timestep


start timestep kper="12" kstp="15" mode="normal"



  SFR-1 BUDGET FOR ENTIRE MODEL AT END OF TIME STEP   15, STRESS PERIOD  12
  ------------------------------------------------------------------------------

     CUMULATIVE SFR-1      L**3       RATES FOR THIS TIME STEP      L**3/T
     ------------------                 ------------------------

           IN:                                      IN:
           ---                                      ---
                 GWF =   424914514.1740                   GWF =          13.3891
            RAINFALL =           0.0000              RAINFALL =           0.0000
         EVAPORATION =           0.0000           EVAPORATION =           0.0000
              RUNOFF =           0.0000                RUNOFF =           0.0000
          EXT-INFLOW =  5834160000.0000            EXT-INFLOW =         185.0000
         EXT-OUTFLOW =           0.0000           EXT-OUTFLOW =           0.0000
             STORAGE =           0.0000               STORAGE =           0.0000
            FROM-MVR =           0.0000              FROM-MVR =           0.0000
              TO-MVR =           0.0000                TO-MVR =           0.0000

            TOTAL IN =  6259074514.1740              TOTAL IN =         198.3891

          OUT:                                     OUT:
          ----                                     ----
                 GWF =  1349057369.7861                   GWF =          42.7292
            RAINFALL =           0.0000              RAINFALL =           0.0000
         EVAPORATION =           0.0000           EVAPORATION =           0.0000
              RUNOFF =           0.0000                RUNOFF =           0.0000
          EXT-INFLOW =           0.0000            EXT-INFLOW =           0.0000
         EXT-OUTFLOW =  4910017144.3879           EXT-OUTFLOW =         155.6599
             STORAGE =           0.0000               STORAGE =           0.0000
            FROM-MVR =           0.0000              FROM-MVR =           0.0000
              TO-MVR =           0.0000                TO-MVR =           0.0000

           TOTAL OUT =  6259074514.1740             TOTAL OUT =         198.3891

            IN - OUT =       9.5367E-07              IN - OUT =           0.0000

 PERCENT DISCREPANCY =           0.00     PERCENT DISCREPANCY =           0.00



  UZF-1 BUDGET FOR ENTIRE MODEL AT END OF TIME STEP   15, STRESS PERIOD  12
  ------------------------------------------------------------------------------

     CUMULATIVE UZF-1      L**3       RATES FOR THIS TIME STEP      L**3/T
     ------------------                 ------------------------

           IN:                                      IN:
           ---                                      ---
                 GWF =           0.0000                   GWF =           0.0000
        INFILTRATION =  1536788700.0000          INFILTRATION =           8.4750
             REJ-INF =           0.0000               REJ-INF =           0.0000
                UZET =           0.0000                  UZET =           0.0000
             STORAGE =   571906802.8254               STORAGE =          21.3796
            FROM-MVR =           0.0000              FROM-MVR =           0.0000
      REJ-INF-TO-MVR =           0.0000        REJ-INF-TO-MVR =           0.0000

            TOTAL IN =  2108695502.8254              TOTAL IN =          29.8546

          OUT:                                     OUT:
          ----                                     ----
                 GWF =    92689154.5762                   GWF =       6.9568E-03
        INFILTRATION =           0.0000          INFILTRATION =           0.0000
             REJ-INF =           0.0000               REJ-INF =           0.0000
                UZET =  1288985693.7484                  UZET =          29.8476
             STORAGE =   727020663.7236               STORAGE =           0.0000
            FROM-MVR =           0.0000              FROM-MVR =           0.0000
      REJ-INF-TO-MVR =           0.0000        REJ-INF-TO-MVR =           0.0000

           TOTAL OUT =  2108695512.0482             TOTAL OUT =          29.8546

            IN - OUT =          -9.2228              IN - OUT =      -1.9749E-06

 PERCENT DISCREPANCY =          -0.00     PERCENT DISCREPANCY =          -0.00



  WATER MOVER BUDGET FOR ENTIRE MODEL AT END OF TIME STEP   15, STRESS PERIOD  12
  ------------------------------------------------------------------------------

     CUMULATIVE WATER MOVER      L**3       RATES FOR THIS TIME STEP      L**3/T
     ------------------                 ------------------------

           IN:                                      IN:
           ---                                      ---
               SFR-1 =           0.0000                 SFR-1 =           0.0000
               UZF-1 =           0.0000                 UZF-1 =           0.0000
               DRN-1 =           0.0000                 DRN-1 =           0.0000

            TOTAL IN =           0.0000              TOTAL IN =           0.0000

          OUT:                                     OUT:
          ----                                     ----
               SFR-1 =           0.0000                 SFR-1 =           0.0000
               UZF-1 =           0.0000                 UZF-1 =           0.0000
               DRN-1 =           0.0000                 DRN-1 =           0.0000

           TOTAL OUT =           0.0000             TOTAL OUT =           0.0000

            IN - OUT =           0.0000              IN - OUT =           0.0000

 PERCENT DISCREPANCY =           0.00     PERCENT DISCREPANCY =           0.00



  VOLUME BUDGET FOR ENTIRE MODEL AT END OF TIME STEP   15, STRESS PERIOD  12
  ---------------------------------------------------------------------------------------------------

     CUMULATIVE VOLUME      L**3       RATES FOR THIS TIME STEP      L**3/T          PACKAGE NAME    
     ------------------                 ------------------------                     ----------------

           IN:                                      IN:
           ---                                      ---
              STO-SS =      447705.2008                STO-SS =       3.9544E-03     STORAGE                          
              STO-SY =   231233782.9405                STO-SY =           2.9545     STORAGE                          
                 WEL =           0.0000                   WEL =           0.0000     WEL_0                            
                 DRN =           0.0000                   DRN =           0.0000     DRN-1                            
          DRN-TO-MVR =           0.0000            DRN-TO-MVR =           0.0000     DRN-1                            
                 GHB =     7816249.7511                   GHB =           0.2481     GHB_0                            
                 SFR =  1349057371.2718                   SFR =          42.7292     SFR-1                            
           UZF-GWRCH =    92689154.5762             UZF-GWRCH =       6.9568E-03     UZF-1                            
            UZF-GWET =           0.0000              UZF-GWET =           0.0000     UZF-1                            

            TOTAL IN =  1681244263.7404              TOTAL IN =          45.9427

          OUT:                                     OUT:
          ----                                     ----
              STO-SS =      755908.9616                STO-SS =       3.5048E-02     STORAGE                          
              STO-SY =   329632155.5947                STO-SY =          15.4037     STORAGE                          
                 WEL =   394200000.0000                   WEL =           0.0000     WEL_0                            
                 DRN =           0.0000                   DRN =           0.0000     DRN-1                            
          DRN-TO-MVR =           0.0000            DRN-TO-MVR =           0.0000     DRN-1                            
                 GHB =     6692234.5963                   GHB =           0.2122     GHB_0                            
                 SFR =   424914513.5911                   SFR =          13.3891     SFR-1                            
           UZF-GWRCH =           0.0000             UZF-GWRCH =           0.0000     UZF-1                            
            UZF-GWET =   525049456.0804              UZF-GWET =          16.9026     UZF-1                            

           TOTAL OUT =  1681244268.8241             TOTAL OUT =          45.9427

            IN - OUT =          -5.0837              IN - OUT =      -1.1259E-08

 PERCENT DISCREPANCY =          -0.00     PERCENT DISCREPANCY =          -0.00




         TIME SUMMARY AT END OF TIME STEP   15 IN STRESS PERIOD   12
                    SECONDS     MINUTES      HOURS       DAYS        YEARS
                    -----------------------------------------------------------
   TIME STEP LENGTH 3.14103E+05  5235.0      87.251      3.6354     9.95332E-03
 STRESS PERIOD TIME 2.62800E+06  43800.      730.00      30.417     8.32763E-02
         TOTAL TIME 3.15360E+07 5.25600E+05  8760.0      365.00     0.99932    


end timestep

