                                   MODFLOW 6
                U.S. GEOLOGICAL SURVEY MODULAR HYDROLOGIC MODEL
                            VERSION 6.6.1 02/10/2025

   MODFLOW 6 compiled Feb 14 2025 13:40:10 with Intel(R) Fortran Intel(R) 64
   Compiler Classic for applications running on Intel(R) 64, Version 2021.7.0
                             Build 20220726_000000

This software has been approved for release by the U.S. Geological 
Survey (USGS). Although the software has been subjected to rigorous 
review, the USGS reserves the right to update the software as needed 
pursuant to further analysis and review. No warranty, expressed or 
implied, is made by the USGS or the U.S. Government as to the 
functionality of the software and related material nor shall the 
fact of release constitute any such warranty. Furthermore, the 
software is released on condition that neither the USGS nor the U.S. 
Government shall be held liable for any damages resulting from its 
authorized or unauthorized use. Also refer to the USGS Water 
Resources Software User Rights Notice for complete use, copyright, 
and distribution information.


As a work of the United States Government, this USGS product is 
in the public domain within the United States. You can copy, 
modify, distribute, and perform the work, even for commercial 
purposes, all without asking permission. Additionally, USGS 
waives copyright and related rights in the work worldwide 
through CC0 1.0 Universal Public Domain Dedication 
(https://creativecommons.org/publicdomain/zero/1.0/).

The following GNU Lesser General Public License (LGPL) libraries
are used in this USGS product:

    SPARSKIT version 2.0
      ilut, luson, and qsplit 
      (https://www-users.cse.umn.edu/~saad/software/SPARSKIT/)

    RCM - Reverse Cuthill McKee Ordering
      (https://people.math.sc.edu/Burkardt/f_src/rcm/rcm.html)

    BLAS - Basic Linear Algebra Subprograms Level 1
      (https://people.math.sc.edu/Burkardt/f_src/blas1_d/blas1_d.html)

    SPARSEKIT - Sparse Matrix Utility Package
      amux, dperm, dvperm, rperm, and cperm
      (https://people.sc.fsu.edu/~jburkardt/f77_src/sparsekit/sparsekit.html)

The following BSD-3 License libraries are used in this USGS product:

    Modern Fortran DAG Library
      Copyright (c) 2018, Jacob Williams
      All rights reserved.
      (https://github.com/jacobwilliams/daglib)

MODFLOW 6 compiler options: /O2 /heap-arrays:0 /fpe:0 /traceback /nologo /fpp
/c /module:win64\mod_mf6\ /object:win64\obj_mf6\

System command used to initiate simulation:
C:\Users\gross.DESKTOP-AIRQM2M\anaconda3\Scripts\mf6.exe

MODFLOW was compiled using uniform precision.

Real Variables
  KIND: 8
  TINY (smallest non-zero value):    2.225074-308
  HUGE (largest value):    1.797693+308
  PRECISION: 15
  SIZE IN BITS: 64

Integer Variables
  KIND: 4
  HUGE (largest value): 2147483647
  SIZE IN BITS: 32

Long Integer Variables
  KIND: 8
  HUGE (largest value): 9223372036854775807
  SIZE IN BITS: 64

Logical Variables
  KIND: 4
  SIZE IN BITS: 32
 

 OPENED mfsim.nam
 FILE TYPE:NAM6               UNIT 1001   STATUS:OLD                 
 FORMAT:FORMATTED              ACCESS:SEQUENTIAL          
 ACTION:READ                

 # File generated by Flopy version 3.9.1 on 07/03/2025 at 10:31:05.

 OPENED ex-gwf-drn-p01.tdis
 FILE TYPE:TDIS6              UNIT 1002   STATUS:OLD                 
 FORMAT:FORMATTED              ACCESS:SEQUENTIAL          
 ACTION:READ                

 # File generated by Flopy version 3.9.1 on 07/03/2025 at 10:31:05.

 OPENED ex-gwf-drn-p01.nam
 FILE TYPE:GWF6               UNIT 1003   STATUS:OLD                 
 FORMAT:FORMATTED              ACCESS:SEQUENTIAL          
 ACTION:READ                

 # File generated by Flopy version 3.9.1 on 07/03/2025 at 10:31:06.

 OPENED ex-gwf-drn-p01.dis
 FILE TYPE:DIS6               UNIT 1004   STATUS:OLD                 
 FORMAT:FORMATTED              ACCESS:SEQUENTIAL          
 ACTION:READ                

 # File generated by Flopy version 3.9.1 on 07/03/2025 at 10:31:06.

 OPENED ex-gwf-drn-p01.npf
 FILE TYPE:NPF6               UNIT 1005   STATUS:OLD                 
 FORMAT:FORMATTED              ACCESS:SEQUENTIAL          
 ACTION:READ                

 # File generated by Flopy version 3.9.1 on 07/03/2025 at 10:31:06.

 OPENED ex-gwf-drn-p01.sto
 FILE TYPE:STO6               UNIT 1006   STATUS:OLD                 
 FORMAT:FORMATTED              ACCESS:SEQUENTIAL          
 ACTION:READ                

 # File generated by Flopy version 3.9.1 on 07/03/2025 at 10:31:06.

 OPENED ex-gwf-drn-p01.ic
 FILE TYPE:IC6                UNIT 1007   STATUS:OLD                 
 FORMAT:FORMATTED              ACCESS:SEQUENTIAL          
 ACTION:READ                

 # File generated by Flopy version 3.9.1 on 07/03/2025 at 10:31:06.

 OPENED ex-gwf-drn-p01.mvr
 FILE TYPE:MVR6      UNIT 1008   STATUS:OLD                 
 FORMAT:FORMATTED              ACCESS:SEQUENTIAL          
 ACTION:READ                


 OPENED ex-gwf-drn-p01.oc
 FILE TYPE:OC6       UNIT 1009   STATUS:OLD                 
 FORMAT:FORMATTED              ACCESS:SEQUENTIAL          
 ACTION:READ                


 OPENED ex-gwf-drn-p01.wel
 FILE TYPE:WEL6               UNIT 1010   STATUS:OLD                 
 FORMAT:FORMATTED              ACCESS:SEQUENTIAL          
 ACTION:READ                

 # File generated by Flopy version 3.9.1 on 07/03/2025 at 10:31:06.

 OPENED ex-gwf-drn-p01.drn
 FILE TYPE:DRN6               UNIT 1011   STATUS:OLD                 
 FORMAT:FORMATTED              ACCESS:SEQUENTIAL          
 ACTION:READ                

 # File generated by Flopy version 3.9.1 on 07/03/2025 at 10:31:06.
    AUXILIARY  VARIABLE: DRAINDEPTH      

 OPENED ex-gwf-drn-p01.ghb
 FILE TYPE:GHB6               UNIT 1012   STATUS:OLD                 
 FORMAT:FORMATTED              ACCESS:SEQUENTIAL          
 ACTION:READ                

 # File generated by Flopy version 3.9.1 on 07/03/2025 at 10:31:06.

 OPENED ex-gwf-drn-p01.sfr
 FILE TYPE:SFR6      UNIT 1013   STATUS:OLD                 
 FORMAT:FORMATTED              ACCESS:SEQUENTIAL          
 ACTION:READ                


 OPENED ex-gwf-drn-p01.uzf
 FILE TYPE:UZF6      UNIT 1014   STATUS:OLD                 
 FORMAT:FORMATTED              ACCESS:SEQUENTIAL          
 ACTION:READ                


 READING SIMULATION OPTIONS
    MAXIMUM NUMBER OF ERRORS THAT WILL BE STORED IS 1000
 END OF SIMULATION OPTIONS

 READING SIMULATION TIMING

 TDIS -- TEMPORAL DISCRETIZATION PACKAGE,
 VERSION 1 : 11/13/2014 - INPUT READ FROM MEMPATH: __INPUT__/SIM/TDIS                                
 PROCESSING TDIS OPTIONS
    SIMULATION TIME UNIT IS SECONDS
 END OF TDIS OPTIONS
 PROCESSING TDIS DIMENSIONS
   12 STRESS PERIOD(S) IN SIMULATION
 END OF TDIS DIMENSIONS
 PROCESSING TDIS PERIODDATA


 STRESS PERIOD     LENGTH       TIME STEPS     MULTIPLIER FOR DELT
 ----------------------------------------------------------------------------
        1         2628000.          1                    1.000
        2         2628000.         15                    1.100
        3         2628000.         15                    1.100
        4         2628000.         15                    1.100
        5         2628000.         15                    1.100
        6         2628000.         15                    1.100
        7         2628000.         15                    1.100
        8         2628000.         15                    1.100
        9         2628000.         15                    1.100
       10         2628000.         15                    1.100
       11         2628000.         15                    1.100
       12         2628000.         15                    1.100
 END OF TDIS PERIODDATA
 END OF SIMULATION TIMING

 READING SIMULATION MODELS
    GWF6 model 1 will be created
 END OF SIMULATION MODELS

 READING SIMULATION EXCHANGES
 END OF SIMULATION EXCHANGES

 READING SOLUTIONGROUP

 Creating solution: SLN_1           

 OPENED ex-gwf-drn-p01.ims
 FILE TYPE:IMS   UNIT 1016   STATUS:OLD                 
 FORMAT:FORMATTED              ACCESS:SEQUENTIAL          
 ACTION:READ                

 END OF SOLUTIONGROUP

PROCESSING MODEL CONNECTIONS

 IMS -- ITERATIVE MODEL SOLUTION PACKAGE, VERSION 6, 4/28/2017
         INPUT READ FROM UNIT 1016
 # File generated by Flopy version 3.9.1 on 07/03/2025 at 10:31:06.

 PROCESSING IMS OPTIONS
 END OF IMS OPTIONS

 PROCESSING IMS NONLINEAR
 END OF IMS NONLINEAR DATA
 ***UNDER-RELAXATION WILL NOT BE USED***
 

 PROCESSING LINEAR DATA
 END OF LINEAR DATA
 ***IMS LINEAR SOLVER WILL BE USED***

 IMSLINEAR -- UNSTRUCTURED LINEAR SOLUTION PACKAGE, VERSION 8, 04/28/2017
 An asymmetric matrix will be solved

 OUTER ITERATION CONVERGENCE CRITERION    (DVCLOSE) =    0.100000E-05
 MAXIMUM NUMBER OF OUTER ITERATIONS        (MXITER) = 100
 SOLVER PRINTOUT INDEX                     (IPRIMS) = 1
 NONLINEAR ITERATION METHOD            (NONLINMETH) = 0
 LINEAR SOLUTION METHOD                   (LINMETH) = 1

       SOLUTION BY THE BICONJUGATE-GRADIENT STABILIZED METHOD
 ------------------------------------------------------------------
 MAXIMUM OF 100 CALLS OF SOLUTION ROUTINE
 MAXIMUM OF 50 INTERNAL ITERATIONS PER CALL TO SOLUTION ROUTINE
 LINEAR ACCELERATION METHOD            = BCGS      
 MATRIX PRECONDITIONING TYPE           = INCOMPLETE LU       
 MATRIX SCALING APPROACH               = NO SCALING          
 MATRIX REORDERING APPROACH            = ORIGINAL ORDERING        
 NUMBER OF ORTHOGONALIZATIONS          = 0
 HEAD CHANGE CRITERION FOR CLOSURE     =    0.10000E-05
 RESIDUAL CHANGE CRITERION FOR CLOSURE =    0.10000E-05
 RESIDUAL CONVERGENCE OPTION           = 0
 RESIDUAL CONVERGENCE NORM             = INFINITY NORM   
 RELAXATION FACTOR                     =    0.00000E+00



 
    Solving:  Stress period:     1    Time step:     1
 
1
 STRESS PERIOD NO. 1, LENGTH =   2628000.    
 ------------------------------------------
 NUMBER OF TIME STEPS = 1
 MULTIPLIER FOR DELT =     1.000
 INITIAL TIME STEP SIZE =   2628000.    



 PSEUDO-TRANSIENT CONTINUATION WILL BE APPLIED TO MODEL 1 ("EX-GWF-DRN-P01") DURING THIS TIME STEP

 SLN_1 OUTER ITERATION SUMMARY
 ----------------------------------------------------------------------------------------------------------
                                OUTER      INNER                    STEP   MAXIMUM CHANGE MODEL-(CELLID) OR
 OUTER ITERATION STEP       ITERATION  ITERATION  MAXIMUM CHANGE SUCCESS             MODEL-PACKAGE-(NUMBER)
 ----------------------------------------------------------------------------------------------------------
 Model                              1         11       95.181283                              1_GWF-(1,1,1)
 Model                              2          7      -40.942801                              1_GWF-(1,1,1)
 Model                              3          8      -16.110170                             1_GWF-(1,14,5)
 Model                              4          7      -10.058099                             1_GWF-(1,10,7)
 Model                              5          8      -6.9352651                              1_GWF-(1,5,6)
 Model                              6          8      -4.4532741                              1_GWF-(1,7,6)
 Model                              7          9      -6.8559247                             1_GWF-(1,10,7)
 Model                              8          9      -2.3614638                             1_GWF-(1,10,7)
 Model                              9          8      -1.3910830                              1_GWF-(1,9,6)
 Model                             10          9     -0.57266572                              1_GWF-(1,9,6)
 Model                             11          9     -0.29028830                              1_GWF-(1,8,6)
 Model                             12          8     -0.10107250                              1_GWF-(1,8,6)
 Model                             13          8 -3.84404929E-02                              1_GWF-(1,8,6)
 Model                             14          7 -1.49658916E-02                              1_GWF-(1,8,6)
 Model                             15          7 -5.82424139E-03                              1_GWF-(1,8,6)
 Model                             16          6 -2.26634055E-03                              1_GWF-(1,8,6)
 Model                             17          6 -8.81950499E-04                              1_GWF-(1,8,6)
 Model                             18          6 -3.43216821E-04                              1_GWF-(1,8,6)
 Model                             19          5 -1.33536751E-04                              1_GWF-(1,8,6)
 Model                             20          5 -5.19808307E-05                              1_GWF-(1,8,6)
 Model                             21          5 -2.02355836E-05                              1_GWF-(1,8,6)
 Model                             22          4 -7.85275370E-06                              1_GWF-(1,8,6)
 Model                             23          2 -2.51057804E-06                              1_GWF-(1,5,8)
 Model                             24          1 -6.76506033E-07       *                      1_GWF-(1,8,6)
 Package                           24             6.11989890E-08       *             1_GWF-SFR-1-(21)-stage
 ----------------------------------------------------------------------------------------------------------


 24 CALLS TO NUMERICAL SOLUTION IN TIME STEP 1 STRESS PERIOD 1
 163 TOTAL ITERATIONS
 
    Solving:  Stress period:     2    Time step:     1
 
1
 STRESS PERIOD NO. 2, LENGTH =   2628000.    
 ------------------------------------------
 NUMBER OF TIME STEPS = 15
 MULTIPLIER FOR DELT =     1.100
 INITIAL TIME STEP SIZE =   82713.09    

 SLN_1 OUTER ITERATION SUMMARY
 ----------------------------------------------------------------------------------------------------------
                                OUTER      INNER                    STEP   MAXIMUM CHANGE MODEL-(CELLID) OR
 OUTER ITERATION STEP       ITERATION  ITERATION  MAXIMUM CHANGE SUCCESS             MODEL-PACKAGE-(NUMBER)
 ----------------------------------------------------------------------------------------------------------
 Model                              1          2 -6.60915855E-03                             1_GWF-(1,15,3)
 Model                              2          2 -1.26535302E-04                              1_GWF-(1,5,8)
 Model                              3          1 -2.71697900E-08       *                     1_GWF-(1,13,2)
 Package                            3             7.12060505E-05                    1_GWF-SFR-1-(36)-inflow
 Model                              4          1 -1.92130756E-11       *                     1_GWF-(1,13,2)
 Package                            4             2.08353107E-07       *            1_GWF-SFR-1-(36)-inflow
 ----------------------------------------------------------------------------------------------------------


 4 CALLS TO NUMERICAL SOLUTION IN TIME STEP 1 STRESS PERIOD 2
 6 TOTAL ITERATIONS
 
    Solving:  Stress period:     2    Time step:     2
 

 SLN_1 OUTER ITERATION SUMMARY
 ----------------------------------------------------------------------------------------------------------
                                OUTER      INNER                    STEP   MAXIMUM CHANGE MODEL-(CELLID) OR
 OUTER ITERATION STEP       ITERATION  ITERATION  MAXIMUM CHANGE SUCCESS             MODEL-PACKAGE-(NUMBER)
 ----------------------------------------------------------------------------------------------------------
 Model                              1          2 -7.26602591E-03                             1_GWF-(1,15,3)
 Model                              2          2 -1.41727976E-04                              1_GWF-(1,5,8)
 Model                              3          1 -3.17559170E-08       *                     1_GWF-(1,13,2)
 Package                            3             8.39603874E-05                    1_GWF-SFR-1-(36)-inflow
 Model                              4          1 -2.95585778E-11       *                     1_GWF-(1,13,2)
 Package                            4             2.66894302E-07       *            1_GWF-SFR-1-(36)-inflow
 ----------------------------------------------------------------------------------------------------------


 4 CALLS TO NUMERICAL SOLUTION IN TIME STEP 2 STRESS PERIOD 2
 6 TOTAL ITERATIONS
 
    Solving:  Stress period:     2    Time step:     3
 

 SLN_1 OUTER ITERATION SUMMARY
 ----------------------------------------------------------------------------------------------------------
                                OUTER      INNER                    STEP   MAXIMUM CHANGE MODEL-(CELLID) OR
 OUTER ITERATION STEP       ITERATION  ITERATION  MAXIMUM CHANGE SUCCESS             MODEL-PACKAGE-(NUMBER)
 ----------------------------------------------------------------------------------------------------------
 Model                              1          2 -7.98771342E-03                             1_GWF-(1,15,3)
 Model                              2          2 -1.57158583E-04                              1_GWF-(1,5,8)
 Model                              3          1 -3.65818096E-08       *                     1_GWF-(1,13,2)
 Package                            3             9.76613749E-05                    1_GWF-SFR-1-(36)-inflow
 Model                              4          1 -4.29736247E-11       *                     1_GWF-(1,13,2)
 Package                            4             3.36820492E-07       *            1_GWF-SFR-1-(36)-inflow
 ----------------------------------------------------------------------------------------------------------


 4 CALLS TO NUMERICAL SOLUTION IN TIME STEP 3 STRESS PERIOD 2
 6 TOTAL ITERATIONS
 
    Solving:  Stress period:     2    Time step:     4
 

 SLN_1 OUTER ITERATION SUMMARY
 ----------------------------------------------------------------------------------------------------------
                                OUTER      INNER                    STEP   MAXIMUM CHANGE MODEL-(CELLID) OR
 OUTER ITERATION STEP       ITERATION  ITERATION  MAXIMUM CHANGE SUCCESS             MODEL-PACKAGE-(NUMBER)
 ----------------------------------------------------------------------------------------------------------
 Model                              1          2 -8.78051534E-03                             1_GWF-(1,15,3)
 Model                              2          2 -1.72206975E-04                              1_GWF-(1,5,8)
 Model                              3          1 -4.14451051E-08       *                     1_GWF-(1,13,2)
 Package                            3             1.11826541E-04                    1_GWF-SFR-1-(36)-inflow
 Model                              4          1 -5.93445293E-11       *                     1_GWF-(1,13,2)
 Package                            4             4.17814562E-07       *            1_GWF-SFR-1-(36)-inflow
 ----------------------------------------------------------------------------------------------------------


 4 CALLS TO NUMERICAL SOLUTION IN TIME STEP 4 STRESS PERIOD 2
 6 TOTAL ITERATIONS
 
    Solving:  Stress period:     2    Time step:     5
 

 SLN_1 OUTER ITERATION SUMMARY
 ----------------------------------------------------------------------------------------------------------
                                OUTER      INNER                    STEP   MAXIMUM CHANGE MODEL-(CELLID) OR
 OUTER ITERATION STEP       ITERATION  ITERATION  MAXIMUM CHANGE SUCCESS             MODEL-PACKAGE-(NUMBER)
 ----------------------------------------------------------------------------------------------------------
 Model                              1          2 -9.65131395E-03                             1_GWF-(1,15,3)
 Model                              2          2 -1.85922960E-04                              1_GWF-(1,5,8)
 Model                              3          1 -4.60328238E-08       *                     1_GWF-(1,13,2)
 Package                            3             1.25665304E-04                    1_GWF-SFR-1-(36)-inflow
 Model                              4          1 -7.79891707E-11       *                     1_GWF-(1,13,2)
 Package                            4             5.07757866E-07       *            1_GWF-SFR-1-(36)-inflow
 ----------------------------------------------------------------------------------------------------------


 4 CALLS TO NUMERICAL SOLUTION IN TIME STEP 5 STRESS PERIOD 2
 6 TOTAL ITERATIONS
 
    Solving:  Stress period:     2    Time step:     6
 

 SLN_1 OUTER ITERATION SUMMARY
 ----------------------------------------------------------------------------------------------------------
                                OUTER      INNER                    STEP   MAXIMUM CHANGE MODEL-(CELLID) OR
 OUTER ITERATION STEP       ITERATION  ITERATION  MAXIMUM CHANGE SUCCESS             MODEL-PACKAGE-(NUMBER)
 ----------------------------------------------------------------------------------------------------------
 Model                              1          2 -1.06076290E-02                             1_GWF-(1,15,3)
 Model                              2          2 -1.97165508E-04                              1_GWF-(1,5,8)
 Model                              3          1 -4.99364887E-08       *                     1_GWF-(1,13,2)
 Package                            3             1.38094014E-04                    1_GWF-SFR-1-(36)-inflow
 Model                              4          1 -9.67474989E-11       *                     1_GWF-(1,13,2)
 Package                            4             6.02145913E-07       *            1_GWF-SFR-1-(36)-inflow
 ----------------------------------------------------------------------------------------------------------


 4 CALLS TO NUMERICAL SOLUTION IN TIME STEP 6 STRESS PERIOD 2
 6 TOTAL ITERATIONS
 
    Solving:  Stress period:     2    Time step:     7
 

 SLN_1 OUTER ITERATION SUMMARY
 ----------------------------------------------------------------------------------------------------------
                                OUTER      INNER                    STEP   MAXIMUM CHANGE MODEL-(CELLID) OR
 OUTER ITERATION STEP       ITERATION  ITERATION  MAXIMUM CHANGE SUCCESS             MODEL-PACKAGE-(NUMBER)
 ----------------------------------------------------------------------------------------------------------
 Model                              1          2 -1.16576701E-02                             1_GWF-(1,15,3)
 Model                              2          2 -2.04377836E-04                              1_GWF-(1,5,8)
 Model                              3          1 -5.46640422E-08       *                      1_GWF-(1,8,6)
 Package                            3             1.47594726E-04                    1_GWF-SFR-1-(36)-inflow
 Model                              4          1 -1.13573151E-10       *                     1_GWF-(1,13,2)
 Package                            4             6.92692659E-07       *            1_GWF-SFR-1-(36)-inflow
 ----------------------------------------------------------------------------------------------------------


 4 CALLS TO NUMERICAL SOLUTION IN TIME STEP 7 STRESS PERIOD 2
 6 TOTAL ITERATIONS
 
    Solving:  Stress period:     2    Time step:     8
 

 SLN_1 OUTER ITERATION SUMMARY
 ----------------------------------------------------------------------------------------------------------
                                OUTER      INNER                    STEP   MAXIMUM CHANGE MODEL-(CELLID) OR
 OUTER ITERATION STEP       ITERATION  ITERATION  MAXIMUM CHANGE SUCCESS             MODEL-PACKAGE-(NUMBER)
 ----------------------------------------------------------------------------------------------------------
 Model                              1          2 -1.28103912E-02                             1_GWF-(1,15,3)
 Model                              2          2 -2.05561431E-04                              1_GWF-(1,5,8)
 Model                              3          1 -6.55020358E-08       *                      1_GWF-(1,8,6)
 Package                            3             1.52155630E-04                    1_GWF-SFR-1-(36)-inflow
 Model                              4          1 -1.24146027E-10       *                     1_GWF-(1,13,2)
 Package                            4             7.65812561E-07       *            1_GWF-SFR-1-(36)-inflow
 ----------------------------------------------------------------------------------------------------------


 4 CALLS TO NUMERICAL SOLUTION IN TIME STEP 8 STRESS PERIOD 2
 6 TOTAL ITERATIONS
 
    Solving:  Stress period:     2    Time step:     9
 

 SLN_1 OUTER ITERATION SUMMARY
 ----------------------------------------------------------------------------------------------------------
                                OUTER      INNER                    STEP   MAXIMUM CHANGE MODEL-(CELLID) OR
 OUTER ITERATION STEP       ITERATION  ITERATION  MAXIMUM CHANGE SUCCESS             MODEL-PACKAGE-(NUMBER)
 ----------------------------------------------------------------------------------------------------------
 Model                              1          2 -1.40755483E-02                             1_GWF-(1,15,3)
 Model                              2          2 -1.98207508E-04                              1_GWF-(1,5,8)
 Model                              3          1 -7.51704192E-08       *                      1_GWF-(1,8,6)
 Package                            3             1.49194830E-04                    1_GWF-SFR-1-(36)-inflow
 Model                              4          1 -1.22554411E-10       *                     1_GWF-(1,13,2)
 Package                            4             8.00851878E-07       *            1_GWF-SFR-1-(36)-inflow
 ----------------------------------------------------------------------------------------------------------


 4 CALLS TO NUMERICAL SOLUTION IN TIME STEP 9 STRESS PERIOD 2
 6 TOTAL ITERATIONS
 
    Solving:  Stress period:     2    Time step:    10
 

 SLN_1 OUTER ITERATION SUMMARY
 ----------------------------------------------------------------------------------------------------------
                                OUTER      INNER                    STEP   MAXIMUM CHANGE MODEL-(CELLID) OR
 OUTER ITERATION STEP       ITERATION  ITERATION  MAXIMUM CHANGE SUCCESS             MODEL-PACKAGE-(NUMBER)
 ----------------------------------------------------------------------------------------------------------
 Model                              1          2 -1.54637576E-02                             1_GWF-(1,15,3)
 Model                              2          2 -1.79179161E-04                              1_GWF-(1,5,8)
 Model                              3          1 -8.08217919E-08       *                      1_GWF-(1,8,6)
 Package                            3             1.35447870E-04                    1_GWF-SFR-1-(36)-inflow
 Model                              4          1 -1.03568709E-10       *                     1_GWF-(1,13,1)
 Package                            4             7.67446287E-07       *            1_GWF-SFR-1-(36)-inflow
 ----------------------------------------------------------------------------------------------------------


 4 CALLS TO NUMERICAL SOLUTION IN TIME STEP 10 STRESS PERIOD 2
 6 TOTAL ITERATIONS
 
    Solving:  Stress period:     2    Time step:    11
 

 SLN_1 OUTER ITERATION SUMMARY
 ----------------------------------------------------------------------------------------------------------
                                OUTER      INNER                    STEP   MAXIMUM CHANGE MODEL-(CELLID) OR
 OUTER ITERATION STEP       ITERATION  ITERATION  MAXIMUM CHANGE SUCCESS             MODEL-PACKAGE-(NUMBER)
 ----------------------------------------------------------------------------------------------------------
 Model                              1          2 -1.69865553E-02                             1_GWF-(1,15,3)
 Model                              2          2 -1.44448734E-04                              1_GWF-(1,5,8)
 Model                              3          1 -7.75244189E-08       *                      1_GWF-(1,8,6)
 Package                            3             1.06728264E-04                    1_GWF-SFR-1-(36)-inflow
 Model                              4          1 -6.27551344E-11       *                     1_GWF-(1,13,1)
 Package                            4             6.21671669E-07       *            1_GWF-SFR-1-(36)-inflow
 ----------------------------------------------------------------------------------------------------------


 4 CALLS TO NUMERICAL SOLUTION IN TIME STEP 11 STRESS PERIOD 2
 6 TOTAL ITERATIONS
 
    Solving:  Stress period:     2    Time step:    12
 

 SLN_1 OUTER ITERATION SUMMARY
 ----------------------------------------------------------------------------------------------------------
                                OUTER      INNER                    STEP   MAXIMUM CHANGE MODEL-(CELLID) OR
 OUTER ITERATION STEP       ITERATION  ITERATION  MAXIMUM CHANGE SUCCESS             MODEL-PACKAGE-(NUMBER)
 ----------------------------------------------------------------------------------------------------------
 Model                              1          2 -1.86564577E-02                             1_GWF-(1,15,3)
 Model                              2          2 -8.97294697E-05                              1_GWF-(1,5,8)
 Model                              3          1 -5.76249022E-08       *                      1_GWF-(1,8,6)
 Package                            3             5.83310813E-05                    1_GWF-SFR-1-(36)-inflow
 Model                              4          1 -1.22781785E-11       *                     1_GWF-(1,13,1)
 Package                            4             3.05744302E-07       *            1_GWF-SFR-1-(36)-inflow
 ----------------------------------------------------------------------------------------------------------


 4 CALLS TO NUMERICAL SOLUTION IN TIME STEP 12 STRESS PERIOD 2
 6 TOTAL ITERATIONS
 
    Solving:  Stress period:     2    Time step:    13
 

 SLN_1 OUTER ITERATION SUMMARY
 ----------------------------------------------------------------------------------------------------------
                                OUTER      INNER                    STEP   MAXIMUM CHANGE MODEL-(CELLID) OR
 OUTER ITERATION STEP       ITERATION  ITERATION  MAXIMUM CHANGE SUCCESS             MODEL-PACKAGE-(NUMBER)
 ----------------------------------------------------------------------------------------------------------
 Model                              1          2 -2.04870188E-02                             1_GWF-(1,15,3)
 Model                              2          2 -5.98280860E-05                              1_GWF-(1,6,6)
 Model                              3          1 -1.99772785E-08       *                      1_GWF-(1,6,6)
 Package                            3            -1.55363497E-05                    1_GWF-SFR-1-(36)-inflow
 Model                              4          1  9.32232069E-12       *                     1_GWF-(1,13,2)
 Package                            4            -2.58840622E-07       *            1_GWF-SFR-1-(36)-inflow
 ----------------------------------------------------------------------------------------------------------


 4 CALLS TO NUMERICAL SOLUTION IN TIME STEP 13 STRESS PERIOD 2
 6 TOTAL ITERATIONS
 
    Solving:  Stress period:     2    Time step:    14
 

 SLN_1 OUTER ITERATION SUMMARY
 ----------------------------------------------------------------------------------------------------------
                                OUTER      INNER                    STEP   MAXIMUM CHANGE MODEL-(CELLID) OR
 OUTER ITERATION STEP       ITERATION  ITERATION  MAXIMUM CHANGE SUCCESS             MODEL-PACKAGE-(NUMBER)
 ----------------------------------------------------------------------------------------------------------
 Model                              1          2 -2.24928857E-02                             1_GWF-(1,15,3)
 Model                              2          2  1.01247073E-04                              1_GWF-(1,5,8)
 Model                              3          1  8.55854978E-08       *                      1_GWF-(1,8,6)
 Package                            3            -1.21782096E-04                    1_GWF-SFR-1-(36)-inflow
 Model                              4          1  1.82240001E-10       *                     1_GWF-(1,13,2)
 Package                            4            -1.17693055E-06                    1_GWF-SFR-1-(36)-inflow
 Model                              5          1  3.68345354E-11       *                     1_GWF-(1,13,2)
 Package                            5            -3.81400255E-09       *            1_GWF-SFR-1-(36)-inflow
 ----------------------------------------------------------------------------------------------------------


 5 CALLS TO NUMERICAL SOLUTION IN TIME STEP 14 STRESS PERIOD 2
 7 TOTAL ITERATIONS
 
    Solving:  Stress period:     2    Time step:    15
 

 SLN_1 OUTER ITERATION SUMMARY
 ----------------------------------------------------------------------------------------------------------
                                OUTER      INNER                    STEP   MAXIMUM CHANGE MODEL-(CELLID) OR
 OUTER ITERATION STEP       ITERATION  ITERATION  MAXIMUM CHANGE SUCCESS             MODEL-PACKAGE-(NUMBER)
 ----------------------------------------------------------------------------------------------------------
 Model                              1          2 -2.46898480E-02                             1_GWF-(1,15,3)
 Model                              2          2  2.50083175E-04                              1_GWF-(1,5,8)
 Model                              3          1  2.52714017E-07       *                      1_GWF-(1,8,6)
 Package                            3            -2.68656426E-04                    1_GWF-SFR-1-(36)-inflow
 Model                              4          1  5.52176971E-10       *                     1_GWF-(1,13,2)
 Package                            4            -2.58541166E-06                    1_GWF-SFR-1-(36)-inflow
 Model                              5          1  3.55839802E-11       *                     1_GWF-(1,13,2)
 Package                            5            -1.24255163E-08       *            1_GWF-SFR-1-(36)-inflow
 ----------------------------------------------------------------------------------------------------------


 5 CALLS TO NUMERICAL SOLUTION IN TIME STEP 15 STRESS PERIOD 2
 7 TOTAL ITERATIONS
 
    Solving:  Stress period:     3    Time step:     1
 
1
 STRESS PERIOD NO. 3, LENGTH =   2628000.    
 ------------------------------------------
 NUMBER OF TIME STEPS = 15
 MULTIPLIER FOR DELT =     1.100
 INITIAL TIME STEP SIZE =   82713.09    

 SLN_1 OUTER ITERATION SUMMARY
 ----------------------------------------------------------------------------------------------------------
                                OUTER      INNER                    STEP   MAXIMUM CHANGE MODEL-(CELLID) OR
 OUTER ITERATION STEP       ITERATION  ITERATION  MAXIMUM CHANGE SUCCESS             MODEL-PACKAGE-(NUMBER)
 ----------------------------------------------------------------------------------------------------------
 Model                              1          2  1.54946989E-02                              1_GWF-(1,9,5)
 Model                              2          2  2.13024985E-05                              1_GWF-(1,5,8)
 Model                              3          1  2.50145149E-09       *                     1_GWF-(1,13,2)
 Package                            3            -6.50413599E-06                    1_GWF-SFR-1-(36)-inflow
 Model                              4          1  2.27373675E-13       *                     1_GWF-(1,13,2)
 Package                            4            -1.97327770E-08       *            1_GWF-SFR-1-(36)-inflow
 ----------------------------------------------------------------------------------------------------------


 4 CALLS TO NUMERICAL SOLUTION IN TIME STEP 1 STRESS PERIOD 3
 6 TOTAL ITERATIONS
 
    Solving:  Stress period:     3    Time step:     2
 

 SLN_1 OUTER ITERATION SUMMARY
 ----------------------------------------------------------------------------------------------------------
                                OUTER      INNER                    STEP   MAXIMUM CHANGE MODEL-(CELLID) OR
 OUTER ITERATION STEP       ITERATION  ITERATION  MAXIMUM CHANGE SUCCESS             MODEL-PACKAGE-(NUMBER)
 ----------------------------------------------------------------------------------------------------------
 Model                              1          2  1.68456104E-02                              1_GWF-(1,9,4)
 Model                              2          2  2.85740691E-05                              1_GWF-(1,5,8)
 Model                              3          1  3.54009444E-09       *                     1_GWF-(1,13,2)
 Package                            3            -9.29067640E-06                    1_GWF-SFR-1-(36)-inflow
 Model                              4          1  2.27373675E-13       *                     1_GWF-(1,13,1)
 Package                            4            -3.04986330E-08       *            1_GWF-SFR-1-(36)-inflow
 ----------------------------------------------------------------------------------------------------------


 4 CALLS TO NUMERICAL SOLUTION IN TIME STEP 2 STRESS PERIOD 3
 6 TOTAL ITERATIONS
 
    Solving:  Stress period:     3    Time step:     3
 

 SLN_1 OUTER ITERATION SUMMARY
 ----------------------------------------------------------------------------------------------------------
                                OUTER      INNER                    STEP   MAXIMUM CHANGE MODEL-(CELLID) OR
 OUTER ITERATION STEP       ITERATION  ITERATION  MAXIMUM CHANGE SUCCESS             MODEL-PACKAGE-(NUMBER)
 ----------------------------------------------------------------------------------------------------------
 Model                              1          2  1.84158182E-02                              1_GWF-(1,9,4)
 Model                              2          2  3.82185151E-05                              1_GWF-(1,5,8)
 Model                              3          1  4.99585440E-09       *                     1_GWF-(1,13,2)
 Package                            3            -1.32449914E-05                    1_GWF-SFR-1-(36)-inflow
 Model                              4          1  4.54747351E-13       *                     1_GWF-(1,13,2)
 Package                            4            -4.70246716E-08       *            1_GWF-SFR-1-(36)-inflow
 ----------------------------------------------------------------------------------------------------------


 4 CALLS TO NUMERICAL SOLUTION IN TIME STEP 3 STRESS PERIOD 3
 6 TOTAL ITERATIONS
 
    Solving:  Stress period:     3    Time step:     4
 

 SLN_1 OUTER ITERATION SUMMARY
 ----------------------------------------------------------------------------------------------------------
                                OUTER      INNER                    STEP   MAXIMUM CHANGE MODEL-(CELLID) OR
 OUTER ITERATION STEP       ITERATION  ITERATION  MAXIMUM CHANGE SUCCESS             MODEL-PACKAGE-(NUMBER)
 ----------------------------------------------------------------------------------------------------------
 Model                              1          2  2.01112582E-02                              1_GWF-(1,9,4)
 Model                              2          2  5.08776307E-05                              1_GWF-(1,5,8)
 Model                              3          1  7.94489097E-09       *                      1_GWF-(1,8,6)
 Package                            3            -1.87940011E-05                    1_GWF-SFR-1-(36)-inflow
 Model                              4          1  9.09494702E-13       *                     1_GWF-(1,13,1)
 Package                            4            -7.21425712E-08       *            1_GWF-SFR-1-(36)-inflow
 ----------------------------------------------------------------------------------------------------------


 4 CALLS TO NUMERICAL SOLUTION IN TIME STEP 4 STRESS PERIOD 3
 6 TOTAL ITERATIONS
 
    Solving:  Stress period:     3    Time step:     5
 

 SLN_1 OUTER ITERATION SUMMARY
 ----------------------------------------------------------------------------------------------------------
                                OUTER      INNER                    STEP   MAXIMUM CHANGE MODEL-(CELLID) OR
 OUTER ITERATION STEP       ITERATION  ITERATION  MAXIMUM CHANGE SUCCESS             MODEL-PACKAGE-(NUMBER)
 ----------------------------------------------------------------------------------------------------------
 Model                              1          2  2.19451929E-02                              1_GWF-(1,8,4)
 Model                              2          2  6.71130526E-05                              1_GWF-(1,5,8)
 Model                              3          1  1.25255610E-08       *                      1_GWF-(1,8,6)
 Package                            3            -2.64063139E-05                    1_GWF-SFR-1-(36)-inflow
 Model                              4          1  2.16004992E-12       *                     1_GWF-(1,13,2)
 Package                            4            -1.09530145E-07       *            1_GWF-SFR-1-(36)-inflow
 ----------------------------------------------------------------------------------------------------------


 4 CALLS TO NUMERICAL SOLUTION IN TIME STEP 5 STRESS PERIOD 3
 6 TOTAL ITERATIONS
 
    Solving:  Stress period:     3    Time step:     6
 

 SLN_1 OUTER ITERATION SUMMARY
 ----------------------------------------------------------------------------------------------------------
                                OUTER      INNER                    STEP   MAXIMUM CHANGE MODEL-(CELLID) OR
 OUTER ITERATION STEP       ITERATION  ITERATION  MAXIMUM CHANGE SUCCESS             MODEL-PACKAGE-(NUMBER)
 ----------------------------------------------------------------------------------------------------------
 Model                              1          2  2.39345870E-02                              1_GWF-(1,8,4)
 Model                              2          2  8.78281289E-05                              1_GWF-(1,5,8)
 Model                              3          1  1.95643679E-08       *                      1_GWF-(1,8,6)
 Package                            3            -3.68155876E-05                    1_GWF-SFR-1-(36)-inflow
 Model                              4          1  5.22959454E-12       *                     1_GWF-(1,13,2)
 Package                            4            -1.64850234E-07       *            1_GWF-SFR-1-(36)-inflow
 ----------------------------------------------------------------------------------------------------------


 4 CALLS TO NUMERICAL SOLUTION IN TIME STEP 6 STRESS PERIOD 3
 6 TOTAL ITERATIONS
 
    Solving:  Stress period:     3    Time step:     7
 

 SLN_1 OUTER ITERATION SUMMARY
 ----------------------------------------------------------------------------------------------------------
                                OUTER      INNER                    STEP   MAXIMUM CHANGE MODEL-(CELLID) OR
 OUTER ITERATION STEP       ITERATION  ITERATION  MAXIMUM CHANGE SUCCESS             MODEL-PACKAGE-(NUMBER)
 ----------------------------------------------------------------------------------------------------------
 Model                              1          2  2.60734410E-02                              1_GWF-(1,8,4)
 Model                              2          2  1.15124067E-04                              1_GWF-(1,5,8)
 Model                              3          1  3.05717549E-08       *                      1_GWF-(1,8,6)
 Package                            3            -5.14876319E-05                    1_GWF-SFR-1-(36)-inflow
 Model                              4          1  1.26192390E-11       *                     1_GWF-(1,13,2)
 Package                            4            -2.48757992E-07       *            1_GWF-SFR-1-(36)-inflow
 ----------------------------------------------------------------------------------------------------------


 4 CALLS TO NUMERICAL SOLUTION IN TIME STEP 7 STRESS PERIOD 3
 6 TOTAL ITERATIONS
 
    Solving:  Stress period:     3    Time step:     8
 

 SLN_1 OUTER ITERATION SUMMARY
 ----------------------------------------------------------------------------------------------------------
                                OUTER      INNER                    STEP   MAXIMUM CHANGE MODEL-(CELLID) OR
 OUTER ITERATION STEP       ITERATION  ITERATION  MAXIMUM CHANGE SUCCESS             MODEL-PACKAGE-(NUMBER)
 ----------------------------------------------------------------------------------------------------------
 Model                              1          2  2.83652501E-02                              1_GWF-(1,8,4)
 Model                              2          2  1.49427149E-04                              1_GWF-(1,5,8)
 Model                              3          1  4.72407464E-08       *                      1_GWF-(1,8,6)
 Package                            3            -7.12742502E-05                    1_GWF-SFR-1-(36)-inflow
 Model                              4          1  2.92175173E-11       *                     1_GWF-(1,13,2)
 Package                            4            -3.71026039E-07       *            1_GWF-SFR-1-(36)-inflow
 ----------------------------------------------------------------------------------------------------------


 4 CALLS TO NUMERICAL SOLUTION IN TIME STEP 8 STRESS PERIOD 3
 6 TOTAL ITERATIONS
 
    Solving:  Stress period:     3    Time step:     9
 

 SLN_1 OUTER ITERATION SUMMARY
 ----------------------------------------------------------------------------------------------------------
                                OUTER      INNER                    STEP   MAXIMUM CHANGE MODEL-(CELLID) OR
 OUTER ITERATION STEP       ITERATION  ITERATION  MAXIMUM CHANGE SUCCESS             MODEL-PACKAGE-(NUMBER)
 ----------------------------------------------------------------------------------------------------------
 Model                              1          2  3.08115350E-02                              1_GWF-(1,8,4)
 Model                              2          2  2.01856224E-04                              1_GWF-(1,5,8)
 Model                              3          1  7.58795977E-08       *                      1_GWF-(1,8,6)
 Package                            3            -1.05902914E-04                    1_GWF-SFR-1-(36)-inflow
 Model                              4          1  7.17363946E-11       *                     1_GWF-(1,13,2)
 Package                            4            -5.94364286E-07       *            1_GWF-SFR-1-(36)-inflow
 ----------------------------------------------------------------------------------------------------------


 4 CALLS TO NUMERICAL SOLUTION IN TIME STEP 9 STRESS PERIOD 3
 6 TOTAL ITERATIONS
 
    Solving:  Stress period:     3    Time step:    10
 

 SLN_1 OUTER ITERATION SUMMARY
 ----------------------------------------------------------------------------------------------------------
                                OUTER      INNER                    STEP   MAXIMUM CHANGE MODEL-(CELLID) OR
 OUTER ITERATION STEP       ITERATION  ITERATION  MAXIMUM CHANGE SUCCESS             MODEL-PACKAGE-(NUMBER)
 ----------------------------------------------------------------------------------------------------------
 Model                              1          2  3.34113349E-02                              1_GWF-(1,8,4)
 Model                              2          2  2.69054478E-04                              1_GWF-(1,5,8)
 Model                              3          1  1.20070354E-07       *                      1_GWF-(1,8,6)
 Package                            3            -1.53982839E-04                    1_GWF-SFR-1-(36)-inflow
 Model                              4          1  1.53477231E-10       *                     1_GWF-(1,13,2)
 Package                            4            -9.30271692E-07       *            1_GWF-SFR-1-(36)-inflow
 ----------------------------------------------------------------------------------------------------------


 4 CALLS TO NUMERICAL SOLUTION IN TIME STEP 10 STRESS PERIOD 3
 6 TOTAL ITERATIONS
 
    Solving:  Stress period:     3    Time step:    11
 

 SLN_1 OUTER ITERATION SUMMARY
 ----------------------------------------------------------------------------------------------------------
                                OUTER      INNER                    STEP   MAXIMUM CHANGE MODEL-(CELLID) OR
 OUTER ITERATION STEP       ITERATION  ITERATION  MAXIMUM CHANGE SUCCESS             MODEL-PACKAGE-(NUMBER)
 ----------------------------------------------------------------------------------------------------------
 Model                              1          2  3.61606793E-02                              1_GWF-(1,8,4)
 Model                              2          2  3.54969259E-04                              1_GWF-(1,5,8)
 Model                              3          1  1.87753358E-07       *                      1_GWF-(1,8,6)
 Package                            3            -2.20107959E-04                    1_GWF-SFR-1-(36)-inflow
 Model                              4          1  2.84899215E-10       *                     1_GWF-(1,13,2)
 Package                            4            -1.42900924E-06                    1_GWF-SFR-1-(36)-inflow
 Model                              5          1  2.88764568E-11       *                     1_GWF-(1,13,2)
 Package                            5            -4.28826480E-09       *            1_GWF-SFR-1-(36)-inflow
 ----------------------------------------------------------------------------------------------------------


 5 CALLS TO NUMERICAL SOLUTION IN TIME STEP 11 STRESS PERIOD 3
 7 TOTAL ITERATIONS
 
    Solving:  Stress period:     3    Time step:    12
 

 SLN_1 OUTER ITERATION SUMMARY
 ----------------------------------------------------------------------------------------------------------
                                OUTER      INNER                    STEP   MAXIMUM CHANGE MODEL-(CELLID) OR
 OUTER ITERATION STEP       ITERATION  ITERATION  MAXIMUM CHANGE SUCCESS             MODEL-PACKAGE-(NUMBER)
 ----------------------------------------------------------------------------------------------------------
 Model                              1          2  3.90520726E-02                              1_GWF-(1,8,4)
 Model                              2          2  4.63824718E-04                              1_GWF-(1,5,8)
 Model                              3          1  2.90263415E-07       *                      1_GWF-(1,8,6)
 Package                            3            -3.10523865E-04                    1_GWF-SFR-1-(36)-inflow
 Model                              4          1  4.84760676E-10       *                     1_GWF-(1,13,1)
 Package                            4            -2.16265092E-06                    1_GWF-SFR-1-(36)-inflow
 Model                              5          1  2.71711542E-11       *                     1_GWF-(1,13,1)
 Package                            5            -7.95948369E-09       *            1_GWF-SFR-1-(36)-inflow
 ----------------------------------------------------------------------------------------------------------


 5 CALLS TO NUMERICAL SOLUTION IN TIME STEP 12 STRESS PERIOD 3
 7 TOTAL ITERATIONS
 
    Solving:  Stress period:     3    Time step:    13
 

 SLN_1 OUTER ITERATION SUMMARY
 ----------------------------------------------------------------------------------------------------------
                                OUTER      INNER                    STEP   MAXIMUM CHANGE MODEL-(CELLID) OR
 OUTER ITERATION STEP       ITERATION  ITERATION  MAXIMUM CHANGE SUCCESS             MODEL-PACKAGE-(NUMBER)
 ----------------------------------------------------------------------------------------------------------
 Model                              1          2  4.20740397E-02                              1_GWF-(1,8,4)
 Model                              2          2  1.10791851E-02                              1_GWF-(1,3,6)
 Model                              3          2  4.31605754E-03                              1_GWF-(1,3,6)
 Model                              4          2  1.68138444E-03                              1_GWF-(1,3,6)
 Model                              5          2  6.55008556E-04                              1_GWF-(1,3,6)
 Model                              6          2  2.55168453E-04                              1_GWF-(1,3,6)
 Model                              7          2  9.94047209E-05                              1_GWF-(1,3,6)
 Model                              8          2  3.87246093E-05                              1_GWF-(1,3,6)
 Model                              9          2  1.50857570E-05                              1_GWF-(1,3,6)
 Model                             10          2  5.87688373E-06                              1_GWF-(1,3,6)
 Model                             11          2  2.28942940E-06                              1_GWF-(1,3,6)
 Model                             12          1  8.91880063E-07       *                      1_GWF-(1,3,6)
 Package                           12            -9.90518179E-06                    1_GWF-SFR-1-(12)-inflow
 Model                             13          1  3.47442210E-07       *                      1_GWF-(1,3,6)
 Package                           13            -3.85870564E-06                    1_GWF-SFR-1-(12)-inflow
 Model                             14          1  1.35343271E-07       *                      1_GWF-(1,3,6)
 Package                           14            -1.50320348E-06                    1_GWF-SFR-1-(12)-inflow
 Model                             15          1  5.27040811E-08       *                      1_GWF-(1,3,6)
 Package                           15            -5.85560620E-07       *            1_GWF-SFR-1-(12)-inflow
 ----------------------------------------------------------------------------------------------------------


 15 CALLS TO NUMERICAL SOLUTION IN TIME STEP 13 STRESS PERIOD 3
 26 TOTAL ITERATIONS
 
    Solving:  Stress period:     3    Time step:    14
 

 SLN_1 OUTER ITERATION SUMMARY
 ----------------------------------------------------------------------------------------------------------
                                OUTER      INNER                    STEP   MAXIMUM CHANGE MODEL-(CELLID) OR
 OUTER ITERATION STEP       ITERATION  ITERATION  MAXIMUM CHANGE SUCCESS             MODEL-PACKAGE-(NUMBER)
 ----------------------------------------------------------------------------------------------------------
 Model                              1          2      0.15476985                              1_GWF-(1,3,6)
 Model                              2          2  6.00151684E-02                              1_GWF-(1,3,6)
 Model                              3          2  2.32652629E-02                              1_GWF-(1,3,6)
 Model                              4          2  9.01657223E-03                              1_GWF-(1,3,6)
 Model                              5          2  3.49361270E-03                              1_GWF-(1,3,6)
 Model                              6          2  1.35338067E-03                              1_GWF-(1,3,6)
 Model                              7          2  5.24189017E-04                              1_GWF-(1,3,6)
 Model                              8          2  2.02996311E-04                              1_GWF-(1,3,6)
 Model                              9          2  7.86011728E-05                              1_GWF-(1,3,6)
 Model                             10          2  3.04311175E-05                              1_GWF-(1,3,6)
 Model                             11          2  1.17804304E-05                              1_GWF-(1,3,6)
 Model                             12          2  4.55999634E-06                              1_GWF-(1,3,6)
 Model                             13          2  1.76495155E-06                              1_GWF-(1,3,6)
 Model                             14          1  6.83075768E-07       *                      1_GWF-(1,3,6)
 Package                           14            -8.58735123E-06                    1_GWF-SFR-1-(14)-inflow
 Model                             15          1  2.64345090E-07       *                      1_GWF-(1,3,6)
 Package                           15            -3.30770733E-06                    1_GWF-SFR-1-(14)-inflow
 Model                             16          1  1.02283593E-07       *                      1_GWF-(1,3,6)
 Package                           16            -1.27469765E-06                    1_GWF-SFR-1-(14)-inflow
 Model                             17          1  3.95475581E-08       *                      1_GWF-(1,3,6)
 Package                           17            -4.91403246E-07       *            1_GWF-SFR-1-(14)-inflow
 ----------------------------------------------------------------------------------------------------------


 17 CALLS TO NUMERICAL SOLUTION IN TIME STEP 14 STRESS PERIOD 3
 30 TOTAL ITERATIONS
 
    Solving:  Stress period:     3    Time step:    15
 

 SLN_1 OUTER ITERATION SUMMARY
 ----------------------------------------------------------------------------------------------------------
                                OUTER      INNER                    STEP   MAXIMUM CHANGE MODEL-(CELLID) OR
 OUTER ITERATION STEP       ITERATION  ITERATION  MAXIMUM CHANGE SUCCESS             MODEL-PACKAGE-(NUMBER)
 ----------------------------------------------------------------------------------------------------------
 Model                              1          2      0.13393432                              1_GWF-(1,3,6)
 Model                              2          2  5.18792013E-02                              1_GWF-(1,3,6)
 Model                              3          2  2.00743617E-02                              1_GWF-(1,3,6)
 Model                              4          2  7.76073599E-03                              1_GWF-(1,3,6)
 Model                              5          2  2.99800484E-03                              1_GWF-(1,3,6)
 Model                              6          2  1.15738397E-03                              1_GWF-(1,3,6)
 Model                              7          2  4.46558947E-04                              1_GWF-(1,3,6)
 Model                              8          2  1.72214952E-04                              1_GWF-(1,3,6)
 Model                              9          2  6.63870137E-05                              1_GWF-(1,3,6)
 Model                             10          2  2.55823743E-05                              1_GWF-(1,3,6)
 Model                             11          2  9.85520273E-06                              1_GWF-(1,3,6)
 Model                             12          2  3.79555968E-06                              1_GWF-(1,3,6)
 Model                             13          2  1.46146181E-06                              1_GWF-(1,3,6)
 Model                             14          1  5.62615242E-07       *                      1_GWF-(1,3,6)
 Package                           14            -8.19779618E-06                    1_GWF-SFR-1-(14)-inflow
 Model                             15          1  2.16546596E-07       *                      1_GWF-(1,3,6)
 Package                           15            -3.11948695E-06                    1_GWF-SFR-1-(14)-inflow
 Model                             16          1  8.33204012E-08       *                      1_GWF-(1,3,6)
 Package                           16            -1.18859305E-06                    1_GWF-SFR-1-(14)-inflow
 Model                             17          1  3.20155777E-08       *                      1_GWF-(1,3,6)
 Package                           17            -4.53324937E-07       *            1_GWF-SFR-1-(14)-inflow
 ----------------------------------------------------------------------------------------------------------


 17 CALLS TO NUMERICAL SOLUTION IN TIME STEP 15 STRESS PERIOD 3
 30 TOTAL ITERATIONS
 
    Solving:  Stress period:     4    Time step:     1
 
1
 STRESS PERIOD NO. 4, LENGTH =   2628000.    
 ------------------------------------------
 NUMBER OF TIME STEPS = 15
 MULTIPLIER FOR DELT =     1.100
 INITIAL TIME STEP SIZE =   82713.09    

 SLN_1 OUTER ITERATION SUMMARY
 ----------------------------------------------------------------------------------------------------------
                                OUTER      INNER                    STEP   MAXIMUM CHANGE MODEL-(CELLID) OR
 OUTER ITERATION STEP       ITERATION  ITERATION  MAXIMUM CHANGE SUCCESS             MODEL-PACKAGE-(NUMBER)
 ----------------------------------------------------------------------------------------------------------
 Model                              1          2  2.95119450E-02                              1_GWF-(1,3,6)
 Model                              2          2  1.26212985E-02                              1_GWF-(1,3,6)
 Model                              3          2  5.39589280E-03                              1_GWF-(1,3,6)
 Model                              4          2  2.30619242E-03                              1_GWF-(1,3,6)
 Model                              5          2  9.85411953E-04                              1_GWF-(1,3,6)
 Model                              6          2  4.20963974E-04                              1_GWF-(1,3,6)
 Model                              7          2  1.79799966E-04                              1_GWF-(1,3,6)
 Model                              8          2  7.67826084E-05                              1_GWF-(1,3,6)
 Model                              9          2  3.27849275E-05                              1_GWF-(1,3,6)
 Model                             10          2  1.39969031E-05                              1_GWF-(1,3,6)
 Model                             11          2  5.97507278E-06                              1_GWF-(1,3,6)
 Model                             12          2  2.55043369E-06                              1_GWF-(1,3,6)
 Model                             13          2  1.08855352E-06                              1_GWF-(1,3,6)
 Model                             14          1  4.64574214E-07       *                      1_GWF-(1,3,6)
 Package                           14            -1.55671913E-06                    1_GWF-SFR-1-(14)-inflow
 Model                             15          1  1.98259386E-07       *                      1_GWF-(1,3,6)
 Package                           15            -6.54772063E-07       *            1_GWF-SFR-1-(14)-inflow
 ----------------------------------------------------------------------------------------------------------


 15 CALLS TO NUMERICAL SOLUTION IN TIME STEP 1 STRESS PERIOD 4
 28 TOTAL ITERATIONS
 
    Solving:  Stress period:     4    Time step:     2
 

 SLN_1 OUTER ITERATION SUMMARY
 ----------------------------------------------------------------------------------------------------------
                                OUTER      INNER                    STEP   MAXIMUM CHANGE MODEL-(CELLID) OR
 OUTER ITERATION STEP       ITERATION  ITERATION  MAXIMUM CHANGE SUCCESS             MODEL-PACKAGE-(NUMBER)
 ----------------------------------------------------------------------------------------------------------
 Model                              1          2  2.89539615E-02                              1_GWF-(1,3,6)
 Model                              2          2  1.24683723E-02                              1_GWF-(1,3,6)
 Model                              3          2  5.36691097E-03                              1_GWF-(1,3,6)
 Model                              4          2  2.30929926E-03                              1_GWF-(1,3,6)
 Model                              5          2  9.93347343E-04                              1_GWF-(1,3,6)
 Model                              6          2  4.27176536E-04                              1_GWF-(1,3,6)
 Model                              7          2  1.83660659E-04                              1_GWF-(1,3,6)
 Model                              8          2  7.89481455E-05                              1_GWF-(1,3,6)
 Model                              9          2  3.39310368E-05                              1_GWF-(1,3,6)
 Model                             10          2  1.45811653E-05                              1_GWF-(1,3,6)
 Model                             11          2  6.26521751E-06                              1_GWF-(1,3,6)
 Model                             12          2  2.69176098E-06                              1_GWF-(1,3,6)
 Model                             13          2  1.15637795E-06                              1_GWF-(1,3,6)
 Model                             14          1  4.96741904E-07       *                      1_GWF-(1,3,6)
 Package                           14            -1.78867634E-06                    1_GWF-SFR-1-(14)-inflow
 Model                             15          1  2.13370186E-07       *                      1_GWF-(1,3,6)
 Package                           15            -7.57607371E-07       *            1_GWF-SFR-1-(14)-inflow
 ----------------------------------------------------------------------------------------------------------


 15 CALLS TO NUMERICAL SOLUTION IN TIME STEP 2 STRESS PERIOD 4
 28 TOTAL ITERATIONS
 
    Solving:  Stress period:     4    Time step:     3
 

 SLN_1 OUTER ITERATION SUMMARY
 ----------------------------------------------------------------------------------------------------------
                                OUTER      INNER                    STEP   MAXIMUM CHANGE MODEL-(CELLID) OR
 OUTER ITERATION STEP       ITERATION  ITERATION  MAXIMUM CHANGE SUCCESS             MODEL-PACKAGE-(NUMBER)
 ----------------------------------------------------------------------------------------------------------
 Model                              1          2  3.13614193E-02                              1_GWF-(1,3,6)
 Model                              2          2  1.33454784E-02                              1_GWF-(1,3,6)
 Model                              3          2  5.67675493E-03                              1_GWF-(1,3,6)
 Model                              4          2  2.41388699E-03                              1_GWF-(1,3,6)
 Model                              5          2  1.02613492E-03                              1_GWF-(1,3,6)
 Model                              6          2  4.36093870E-04                              1_GWF-(1,3,6)
 Model                              7          2  1.85292728E-04                              1_GWF-(1,3,6)
 Model                              8          2  7.87140987E-05                              1_GWF-(1,3,6)
 Model                              9          2  3.34328636E-05                              1_GWF-(1,3,6)
 Model                             10          2  1.41981313E-05                              1_GWF-(1,3,6)
 Model                             11          2  6.02883870E-06                              1_GWF-(1,3,6)
 Model                             12          2  2.55969576E-06                              1_GWF-(1,3,6)
 Model                             13          2  1.08667973E-06                              1_GWF-(1,3,6)
 Model                             14          1  4.61294121E-07       *                      1_GWF-(1,3,6)
 Package                           14            -4.72398319E-06                    1_GWF-SFR-1-(15)-inflow
 Model                             15          1  1.95803977E-07       *                      1_GWF-(1,3,6)
 Package                           15            -1.97673052E-06                    1_GWF-SFR-1-(15)-inflow
 Model                             16          1  8.31053057E-08       *                      1_GWF-(1,3,6)
 Package                           16            -8.28506255E-07       *            1_GWF-SFR-1-(15)-inflow
 ----------------------------------------------------------------------------------------------------------


 16 CALLS TO NUMERICAL SOLUTION IN TIME STEP 3 STRESS PERIOD 4
 29 TOTAL ITERATIONS
 
    Solving:  Stress period:     4    Time step:     4
 

 SLN_1 OUTER ITERATION SUMMARY
 ----------------------------------------------------------------------------------------------------------
                                OUTER      INNER                    STEP   MAXIMUM CHANGE MODEL-(CELLID) OR
 OUTER ITERATION STEP       ITERATION  ITERATION  MAXIMUM CHANGE SUCCESS             MODEL-PACKAGE-(NUMBER)
 ----------------------------------------------------------------------------------------------------------
 Model                              1          2  4.63922668E-02                              1_GWF-(1,3,5)
 Model                              2          2  1.96460874E-02                              1_GWF-(1,3,5)
 Model                              3          2  8.31970751E-03                              1_GWF-(1,3,5)
 Model                              4          2  3.52322434E-03                              1_GWF-(1,3,5)
 Model                              5          2  1.49201096E-03                              1_GWF-(1,3,5)
 Model                              6          2  6.31833463E-04                              1_GWF-(1,3,5)
 Model                              7          2  2.67566454E-04                              1_GWF-(1,3,5)
 Model                              8          2  1.13307527E-04                              1_GWF-(1,3,5)
 Model                              9          2  4.79825810E-05                              1_GWF-(1,3,5)
 Model                             10          2  2.03191692E-05                              1_GWF-(1,3,5)
 Model                             11          2  8.60449927E-06                              1_GWF-(1,3,5)
 Model                             12          2  3.64369680E-06                              1_GWF-(1,3,5)
 Model                             13          2  1.54296504E-06                              1_GWF-(1,3,5)
 Model                             14          1  6.53380766E-07       *                      1_GWF-(1,3,5)
 Package                           14            -4.72169753E-06                    1_GWF-SFR-1-(15)-inflow
 Model                             15          1  2.76677156E-07       *                      1_GWF-(1,3,5)
 Package                           15            -1.96559687E-06                    1_GWF-SFR-1-(15)-inflow
 Model                             16          1  1.17157470E-07       *                      1_GWF-(1,3,5)
 Package                           16            -8.19776928E-07       *            1_GWF-SFR-1-(15)-inflow
 ----------------------------------------------------------------------------------------------------------


 16 CALLS TO NUMERICAL SOLUTION IN TIME STEP 4 STRESS PERIOD 4
 29 TOTAL ITERATIONS
 
    Solving:  Stress period:     4    Time step:     5
 

 SLN_1 OUTER ITERATION SUMMARY
 ----------------------------------------------------------------------------------------------------------
                                OUTER      INNER                    STEP   MAXIMUM CHANGE MODEL-(CELLID) OR
 OUTER ITERATION STEP       ITERATION  ITERATION  MAXIMUM CHANGE SUCCESS             MODEL-PACKAGE-(NUMBER)
 ----------------------------------------------------------------------------------------------------------
 Model                              1          2  7.06577785E-02                              1_GWF-(1,3,5)
 Model                              2          2  2.95327924E-02                              1_GWF-(1,3,5)
 Model                              3          2  1.23446773E-02                              1_GWF-(1,3,5)
 Model                              4          2  5.16041273E-03                              1_GWF-(1,3,5)
 Model                              5          2  2.15733676E-03                              1_GWF-(1,3,5)
 Model                              6          2  9.01944543E-04                              1_GWF-(1,3,5)
 Model                              7          2  3.77111530E-04                              1_GWF-(1,3,5)
 Model                              8          2  1.57684002E-04                              1_GWF-(1,3,5)
 Model                              9          2  6.59375974E-05                              1_GWF-(1,3,5)
 Model                             10          2  2.75744014E-05                              1_GWF-(1,3,5)
 Model                             11          2  1.15320483E-05                              1_GWF-(1,3,5)
 Model                             12          2  4.82318683E-06                              1_GWF-(1,3,5)
 Model                             13          2  2.01738521E-06                              1_GWF-(1,3,5)
 Model                             14          1  8.43860334E-07       *                      1_GWF-(1,3,5)
 Package                           14            -6.09258183E-06                    1_GWF-SFR-1-(15)-inflow
 Model                             15          1  3.53003088E-07       *                      1_GWF-(1,3,5)
 Package                           15            -2.55670133E-06                    1_GWF-SFR-1-(15)-inflow
 Model                             16          1  1.47676474E-07       *                      1_GWF-(1,3,5)
 Package                           16            -1.07450742E-06                    1_GWF-SFR-1-(15)-inflow
 Model                             17          1  6.17803835E-08       *                      1_GWF-(1,3,5)
 Package                           17            -4.52167030E-07       *            1_GWF-SFR-1-(15)-inflow
 ----------------------------------------------------------------------------------------------------------


 17 CALLS TO NUMERICAL SOLUTION IN TIME STEP 5 STRESS PERIOD 4
 30 TOTAL ITERATIONS
 
    Solving:  Stress period:     4    Time step:     6
 

 SLN_1 OUTER ITERATION SUMMARY
 ----------------------------------------------------------------------------------------------------------
                                OUTER      INNER                    STEP   MAXIMUM CHANGE MODEL-(CELLID) OR
 OUTER ITERATION STEP       ITERATION  ITERATION  MAXIMUM CHANGE SUCCESS             MODEL-PACKAGE-(NUMBER)
 ----------------------------------------------------------------------------------------------------------
 Model                              1          2  7.47841291E-02                              1_GWF-(1,3,5)
 Model                              2          2  3.13982641E-02                              1_GWF-(1,3,5)
 Model                              3          2  1.31828960E-02                              1_GWF-(1,3,5)
 Model                              4          2  5.53507272E-03                              1_GWF-(1,3,5)
 Model                              5          2  2.32403205E-03                              1_GWF-(1,3,5)
 Model                              6          2  9.75812628E-04                              1_GWF-(1,3,5)
 Model                              7          2  4.09728076E-04                              1_GWF-(1,3,5)
 Model                              8          2  1.72040032E-04                              1_GWF-(1,3,5)
 Model                              9          2  7.22382827E-05                              1_GWF-(1,3,5)
 Model                             10          2  3.03325603E-05                              1_GWF-(1,3,5)
 Model                             11          2  1.27366209E-05                              1_GWF-(1,3,5)
 Model                             12          2  5.34813785E-06                              1_GWF-(1,3,5)
 Model                             13          2  2.24571158E-06                              1_GWF-(1,3,5)
 Model                             14          1  9.42991846E-07       *                      1_GWF-(1,3,5)
 Package                           14            -5.63679000E-06                    1_GWF-SFR-1-(15)-inflow
 Model                             15          1  3.95971028E-07       *                      1_GWF-(1,3,5)
 Package                           15            -2.33744446E-06                    1_GWF-SFR-1-(15)-inflow
 Model                             16          1  1.66271775E-07       *                      1_GWF-(1,3,5)
 Package                           16            -9.71047940E-07       *            1_GWF-SFR-1-(15)-inflow
 ----------------------------------------------------------------------------------------------------------


 16 CALLS TO NUMERICAL SOLUTION IN TIME STEP 6 STRESS PERIOD 4
 29 TOTAL ITERATIONS
 
    Solving:  Stress period:     4    Time step:     7
 

 SLN_1 OUTER ITERATION SUMMARY
 ----------------------------------------------------------------------------------------------------------
                                OUTER      INNER                    STEP   MAXIMUM CHANGE MODEL-(CELLID) OR
 OUTER ITERATION STEP       ITERATION  ITERATION  MAXIMUM CHANGE SUCCESS             MODEL-PACKAGE-(NUMBER)
 ----------------------------------------------------------------------------------------------------------
 Model                              1          2  7.61150323E-02                              1_GWF-(1,3,5)
 Model                              2          2  3.65022852E-02                              1_GWF-(1,3,6)
 Model                              3          2  1.94312696E-02                              1_GWF-(1,3,6)
 Model                              4          2  1.03294489E-02                              1_GWF-(1,3,6)
 Model                              5          2  5.48601630E-03                              1_GWF-(1,3,6)
 Model                              6          2  2.91160572E-03                              1_GWF-(1,3,6)
 Model                              7          2  1.54442022E-03                              1_GWF-(1,3,6)
 Model                              8          2  8.18850818E-04                              1_GWF-(1,3,6)
 Model                              9          2  4.33999559E-04                              1_GWF-(1,3,6)
 Model                             10          2  2.29958678E-04                              1_GWF-(1,3,6)
 Model                             11          2  1.21817831E-04                              1_GWF-(1,3,6)
 Model                             12          2  6.45196526E-05                              1_GWF-(1,3,6)
 Model                             13          2  3.41671600E-05                              1_GWF-(1,3,6)
 Model                             14          2  1.80914735E-05                              1_GWF-(1,3,6)
 Model                             15          2  9.57849306E-06                              1_GWF-(1,3,6)
 Model                             16          2  5.07091818E-06                              1_GWF-(1,3,6)
 Model                             17          2  2.68440886E-06                              1_GWF-(1,3,6)
 Model                             18          2  1.42098247E-06                              1_GWF-(1,3,6)
 Model                             19          1  7.52159394E-07       *                      1_GWF-(1,3,6)
 Package                           19            -8.27789658E-06                    1_GWF-SFR-1-(15)-inflow
 Model                             20          1  3.98121983E-07       *                      1_GWF-(1,3,6)
 Package                           20            -4.37601372E-06                    1_GWF-SFR-1-(15)-inflow
 Model                             21          1  2.10720827E-07       *                      1_GWF-(1,3,6)
[...]
 Model                              5          2 -1.55558700E-06                              1_GWF-(1,3,5)
 Model                              6          1 -2.22617246E-07       *                      1_GWF-(1,3,5)
 Package                            6             1.88417381E-06                    1_GWF-SFR-1-(14)-inflow
 Model                              7          1 -3.18418643E-08       *                      1_GWF-(1,3,5)
 Package                            7             2.40719829E-07       *            1_GWF-SFR-1-(14)-inflow
 ----------------------------------------------------------------------------------------------------------


 7 CALLS TO NUMERICAL SOLUTION IN TIME STEP 4 STRESS PERIOD 12
 12 TOTAL ITERATIONS
 
    Solving:  Stress period:    12    Time step:     5
 

 SLN_1 OUTER ITERATION SUMMARY
 ----------------------------------------------------------------------------------------------------------
                                OUTER      INNER                    STEP   MAXIMUM CHANGE MODEL-(CELLID) OR
 OUTER ITERATION STEP       ITERATION  ITERATION  MAXIMUM CHANGE SUCCESS             MODEL-PACKAGE-(NUMBER)
 ----------------------------------------------------------------------------------------------------------
 Model                              1          2  3.89945006E-02                              1_GWF-(1,6,5)
 Model                              2          2 -5.63477724E-04                              1_GWF-(1,3,5)
 Model                              3          2 -7.83783607E-05                              1_GWF-(1,3,5)
 Model                              4          2 -1.08977683E-05                              1_GWF-(1,3,5)
 Model                              5          2 -1.51467248E-06                              1_GWF-(1,3,5)
 Model                              6          1 -2.10451617E-07       *                      1_GWF-(1,3,5)
 Package                            6             1.89638107E-06                    1_GWF-SFR-1-(14)-inflow
 Model                              7          1 -2.92211553E-08       *                      1_GWF-(1,3,5)
 Package                            7             2.32392227E-07       *            1_GWF-SFR-1-(14)-inflow
 ----------------------------------------------------------------------------------------------------------


 7 CALLS TO NUMERICAL SOLUTION IN TIME STEP 5 STRESS PERIOD 12
 12 TOTAL ITERATIONS
 
    Solving:  Stress period:    12    Time step:     6
 

 SLN_1 OUTER ITERATION SUMMARY
 ----------------------------------------------------------------------------------------------------------
                                OUTER      INNER                    STEP   MAXIMUM CHANGE MODEL-(CELLID) OR
 OUTER ITERATION STEP       ITERATION  ITERATION  MAXIMUM CHANGE SUCCESS             MODEL-PACKAGE-(NUMBER)
 ----------------------------------------------------------------------------------------------------------
 Model                              1          2  4.08169755E-02                              1_GWF-(1,6,5)
 Model                              2          2 -5.95678762E-04                              1_GWF-(1,3,5)
 Model                              3          2 -8.01580811E-05                              1_GWF-(1,3,5)
 Model                              4          2 -1.07816822E-05                              1_GWF-(1,3,5)
 Model                              5          2 -1.44960723E-06                              1_GWF-(1,3,5)
 Model                              6          1 -1.94828544E-07       *                      1_GWF-(1,3,5)
 Package                            6             1.90618024E-06                    1_GWF-SFR-1-(14)-inflow
 Model                              7          1 -2.61616151E-08       *                      1_GWF-(1,3,5)
 Package                            7             2.25064473E-07       *            1_GWF-SFR-1-(14)-inflow
 ----------------------------------------------------------------------------------------------------------


 7 CALLS TO NUMERICAL SOLUTION IN TIME STEP 6 STRESS PERIOD 12
 12 TOTAL ITERATIONS
 
    Solving:  Stress period:    12    Time step:     7
 

 SLN_1 OUTER ITERATION SUMMARY
 ----------------------------------------------------------------------------------------------------------
                                OUTER      INNER                    STEP   MAXIMUM CHANGE MODEL-(CELLID) OR
 OUTER ITERATION STEP       ITERATION  ITERATION  MAXIMUM CHANGE SUCCESS             MODEL-PACKAGE-(NUMBER)
 ----------------------------------------------------------------------------------------------------------
 Model                              1          2  4.28743052E-02                              1_GWF-(1,6,4)
 Model                              2          2 -6.25195739E-04                              1_GWF-(1,3,5)
 Model                              3          2 -8.10290053E-05                              1_GWF-(1,3,5)
 Model                              4          2 -1.04966589E-05                              1_GWF-(1,3,5)
 Model                              5          2 -1.35916230E-06                              1_GWF-(1,3,5)
 Model                              6          1 -1.75919922E-07       *                      1_GWF-(1,3,5)
 Package                            6             1.85778484E-06                    1_GWF-SFR-1-(14)-inflow
 Model                              7          1 -2.27400960E-08       *                      1_GWF-(1,3,5)
 Package                            7             2.10324982E-07       *            1_GWF-SFR-1-(14)-inflow
 ----------------------------------------------------------------------------------------------------------


 7 CALLS TO NUMERICAL SOLUTION IN TIME STEP 7 STRESS PERIOD 12
 12 TOTAL ITERATIONS
 
    Solving:  Stress period:    12    Time step:     8
 

 SLN_1 OUTER ITERATION SUMMARY
 ----------------------------------------------------------------------------------------------------------
                                OUTER      INNER                    STEP   MAXIMUM CHANGE MODEL-(CELLID) OR
 OUTER ITERATION STEP       ITERATION  ITERATION  MAXIMUM CHANGE SUCCESS             MODEL-PACKAGE-(NUMBER)
 ----------------------------------------------------------------------------------------------------------
 Model                              1          2  4.56976645E-02                              1_GWF-(1,7,5)
 Model                              2          2 -6.50728682E-04                              1_GWF-(1,3,5)
 Model                              3          2 -8.08111988E-05                              1_GWF-(1,3,5)
 Model                              4          2 -1.00296829E-05                              1_GWF-(1,3,5)
 Model                              5          2 -1.24416874E-06                              1_GWF-(1,3,5)
 Model                              6          1 -1.54263716E-07       *                      1_GWF-(1,3,5)
 Package                            6             1.72569158E-06                    1_GWF-SFR-1-(14)-inflow
 Model                              7          1 -1.90880201E-08       *                      1_GWF-(1,3,5)
 Package                            7             1.84395537E-07       *            1_GWF-SFR-1-(14)-inflow
 ----------------------------------------------------------------------------------------------------------


 7 CALLS TO NUMERICAL SOLUTION IN TIME STEP 8 STRESS PERIOD 12
 12 TOTAL ITERATIONS
 
    Solving:  Stress period:    12    Time step:     9
 

 SLN_1 OUTER ITERATION SUMMARY
 ----------------------------------------------------------------------------------------------------------
                                OUTER      INNER                    STEP   MAXIMUM CHANGE MODEL-(CELLID) OR
 OUTER ITERATION STEP       ITERATION  ITERATION  MAXIMUM CHANGE SUCCESS             MODEL-PACKAGE-(NUMBER)
 ----------------------------------------------------------------------------------------------------------
 Model                              1          2  4.95038419E-02                              1_GWF-(1,7,4)
 Model                              2          2 -6.70408646E-04                              1_GWF-(1,3,5)
 Model                              3          2 -7.92901760E-05                              1_GWF-(1,3,5)
 Model                              4          2 -9.37169284E-06                              1_GWF-(1,3,5)
 Model                              5          2 -1.10706492E-06                              1_GWF-(1,3,5)
 Model                              6          1 -1.30706894E-07       *                      1_GWF-(1,3,5)
 Package                            6             1.58557790E-06                    1_GWF-SFR-1-(14)-inflow
 Model                              7          1 -1.53772817E-08       *                      1_GWF-(1,3,5)
 Package                            7             1.60470561E-07       *            1_GWF-SFR-1-(14)-inflow
 ----------------------------------------------------------------------------------------------------------


 7 CALLS TO NUMERICAL SOLUTION IN TIME STEP 9 STRESS PERIOD 12
 12 TOTAL ITERATIONS
 
    Solving:  Stress period:    12    Time step:    10
 

 SLN_1 OUTER ITERATION SUMMARY
 ----------------------------------------------------------------------------------------------------------
                                OUTER      INNER                    STEP   MAXIMUM CHANGE MODEL-(CELLID) OR
 OUTER ITERATION STEP       ITERATION  ITERATION  MAXIMUM CHANGE SUCCESS             MODEL-PACKAGE-(NUMBER)
 ----------------------------------------------------------------------------------------------------------
 Model                              1          2  5.37191734E-02                              1_GWF-(1,7,4)
 Model                              2          2 -6.82303981E-04                              1_GWF-(1,3,5)
 Model                              3          2 -7.62941434E-05                              1_GWF-(1,3,5)
 Model                              4          2 -8.52502285E-06                              1_GWF-(1,3,5)
 Model                              5          1 -9.51995162E-07       *                      1_GWF-(1,3,5)
 Package                            5             1.49306176E-05                    1_GWF-SFR-1-(14)-inflow
 Model                              6          1 -1.06246262E-07       *                      1_GWF-(1,3,5)
 Package                            6             1.39823240E-06                    1_GWF-SFR-1-(14)-inflow
 Model                              7          1 -1.17759100E-08       *                      1_GWF-(1,3,5)
 Package                            7             1.33203972E-07       *            1_GWF-SFR-1-(12)-inflow
 ----------------------------------------------------------------------------------------------------------


 7 CALLS TO NUMERICAL SOLUTION IN TIME STEP 10 STRESS PERIOD 12
 11 TOTAL ITERATIONS
 
    Solving:  Stress period:    12    Time step:    11
 

 SLN_1 OUTER ITERATION SUMMARY
 ----------------------------------------------------------------------------------------------------------
                                OUTER      INNER                    STEP   MAXIMUM CHANGE MODEL-(CELLID) OR
 OUTER ITERATION STEP       ITERATION  ITERATION  MAXIMUM CHANGE SUCCESS             MODEL-PACKAGE-(NUMBER)
 ----------------------------------------------------------------------------------------------------------
 Model                              1          2  5.81424561E-02                              1_GWF-(1,7,4)
 Model                              2          2 -6.84224304E-04                              1_GWF-(1,3,5)
 Model                              3          2 -7.16843579E-05                              1_GWF-(1,3,5)
 Model                              4          2 -7.50389472E-06                              1_GWF-(1,3,5)
 Model                              5          1 -7.84957592E-07       *                      1_GWF-(1,3,5)
 Package                            5             1.20607051E-05                    1_GWF-SFR-1-(12)-inflow
 Model                              6          1 -8.20512014E-08       *                      1_GWF-(1,3,5)
 Package                            6             1.08434878E-06                    1_GWF-SFR-1-(12)-inflow
 Model                              7          1 -8.44397618E-09       *                      1_GWF-(1,3,5)
 Package                            7             9.79102814E-08       *            1_GWF-SFR-1-(12)-inflow
 ----------------------------------------------------------------------------------------------------------


 7 CALLS TO NUMERICAL SOLUTION IN TIME STEP 11 STRESS PERIOD 12
 11 TOTAL ITERATIONS
 
    Solving:  Stress period:    12    Time step:    12
 

 SLN_1 OUTER ITERATION SUMMARY
 ----------------------------------------------------------------------------------------------------------
                                OUTER      INNER                    STEP   MAXIMUM CHANGE MODEL-(CELLID) OR
 OUTER ITERATION STEP       ITERATION  ITERATION  MAXIMUM CHANGE SUCCESS             MODEL-PACKAGE-(NUMBER)
 ----------------------------------------------------------------------------------------------------------
 Model                              1          2  6.27540510E-02                              1_GWF-(1,7,4)
 Model                              2          2 -6.73825979E-04                              1_GWF-(1,3,5)
 Model                              3          2 -6.54331757E-05                              1_GWF-(1,3,5)
 Model                              4          2 -6.34816524E-06                              1_GWF-(1,3,5)
 Model                              5          1 -6.15417321E-07       *                      1_GWF-(1,3,5)
 Package                            5             1.04832506E-05                    1_GWF-SFR-1-(12)-inflow
 Model                              6          1 -5.96019163E-08       *                      1_GWF-(1,3,5)
 Package                            6             8.64839789E-07       *            1_GWF-SFR-1-(12)-inflow
 ----------------------------------------------------------------------------------------------------------


 6 CALLS TO NUMERICAL SOLUTION IN TIME STEP 12 STRESS PERIOD 12
 10 TOTAL ITERATIONS
 
    Solving:  Stress period:    12    Time step:    13
 

 SLN_1 OUTER ITERATION SUMMARY
 ----------------------------------------------------------------------------------------------------------
                                OUTER      INNER                    STEP   MAXIMUM CHANGE MODEL-(CELLID) OR
 OUTER ITERATION STEP       ITERATION  ITERATION  MAXIMUM CHANGE SUCCESS             MODEL-PACKAGE-(NUMBER)
 ----------------------------------------------------------------------------------------------------------
 Model                              1          2  6.76040619E-02                              1_GWF-(1,8,4)
 Model                              2          2 -6.48477652E-04                              1_GWF-(1,3,5)
 Model                              3          2 -5.75659151E-05                              1_GWF-(1,3,5)
 Model                              4          2 -5.10501309E-06                              1_GWF-(1,3,5)
 Model                              5          1 -4.52347876E-07       *                      1_GWF-(1,3,5)
 Package                            5             8.55606171E-06                    1_GWF-SFR-1-(12)-inflow
 Model                              6          1 -4.00150384E-08       *                      1_GWF-(1,3,5)
 Package                            6             6.37524125E-07       *            1_GWF-SFR-1-(12)-inflow
 ----------------------------------------------------------------------------------------------------------


 6 CALLS TO NUMERICAL SOLUTION IN TIME STEP 13 STRESS PERIOD 12
 10 TOTAL ITERATIONS
 
    Solving:  Stress period:    12    Time step:    14
 

 SLN_1 OUTER ITERATION SUMMARY
 ----------------------------------------------------------------------------------------------------------
                                OUTER      INNER                    STEP   MAXIMUM CHANGE MODEL-(CELLID) OR
 OUTER ITERATION STEP       ITERATION  ITERATION  MAXIMUM CHANGE SUCCESS             MODEL-PACKAGE-(NUMBER)
 ----------------------------------------------------------------------------------------------------------
 Model                              1          2  7.31552099E-02                              1_GWF-(1,8,4)
 Model                              2          2 -5.73361435E-04                              1_GWF-(1,3,5)
 Model                              3          2 -1.25507925E-05                              1_GWF-(1,5,8)
 Model                              4          1 -1.01429009E-07       *                     1_GWF-(1,13,4)
 Package                            4             4.44761958E-05                    1_GWF-SFR-1-(36)-inflow
 Model                              5          1 -6.56586963E-09       *                     1_GWF-(1,13,4)
 Package                            5             2.55393595E-06                    1_GWF-SFR-1-(36)-inflow
 Model                              6          1 -2.60570232E-10       *                     1_GWF-(1,13,4)
 Package                            6             1.51807771E-07       *            1_GWF-SFR-1-(36)-inflow
 ----------------------------------------------------------------------------------------------------------


 6 CALLS TO NUMERICAL SOLUTION IN TIME STEP 14 STRESS PERIOD 12
 9 TOTAL ITERATIONS
 
    Solving:  Stress period:    12    Time step:    15
 

 SLN_1 OUTER ITERATION SUMMARY
 ----------------------------------------------------------------------------------------------------------
                                OUTER      INNER                    STEP   MAXIMUM CHANGE MODEL-(CELLID) OR
 OUTER ITERATION STEP       ITERATION  ITERATION  MAXIMUM CHANGE SUCCESS             MODEL-PACKAGE-(NUMBER)
 ----------------------------------------------------------------------------------------------------------
 Model                              1          2  7.89420636E-02                              1_GWF-(1,8,4)
 Model                              2          2 -5.02031361E-04                              1_GWF-(1,5,8)
 Model                              3          2 -8.61156309E-06                              1_GWF-(1,5,8)
 Model                              4          1 -1.03746174E-07       *                     1_GWF-(1,13,4)
 Package                            4             5.17508810E-05                    1_GWF-SFR-1-(36)-inflow
 Model                              5          1 -6.38669917E-09       *                     1_GWF-(1,13,4)
 Package                            5             2.78424983E-06                    1_GWF-SFR-1-(36)-inflow
 Model                              6          1 -2.17710294E-10       *                     1_GWF-(1,13,4)
 Package                            6             1.55053068E-07       *            1_GWF-SFR-1-(36)-inflow
 ----------------------------------------------------------------------------------------------------------


 6 CALLS TO NUMERICAL SOLUTION IN TIME STEP 15 STRESS PERIOD 12
 9 TOTAL ITERATIONS

 MEMORY MANAGER TOTAL STORAGE BY DATA TYPE, IN MEGABYTES
 -------------------------------
                    ALLOCATED   
 DATA TYPE           MEMORY     
 -------------------------------
 Character        1.28310000E-02
 Logical          4.80000000E-05
 Integer          4.14160000E-02
 Real             2.0007760     
 -------------------------------
 Total            2.0550710     
 Virtual          0.0000000     
 -------------------------------


 
 Run end date and time (yyyy/mm/dd hh:mm:ss): 2025/07/03 10:31:09
 Elapsed run time:  3.370 Seconds
 Normal termination of simulation.
