                                   MODFLOW 6
                U.S. GEOLOGICAL SURVEY MODULAR HYDROLOGIC MODEL
                         PARTICLE TRACKING MODEL (PRT)
                            VERSION 6.6.1 02/10/2025

   MODFLOW 6 compiled Feb 14 2025 13:40:10 with Intel(R) Fortran Intel(R) 64
   Compiler Classic for applications running on Intel(R) 64, Version 2021.7.0
                             Build 20220726_000000

This software has been approved for release by the U.S. Geological 
Survey (USGS). Although the software has been subjected to rigorous 
review, the USGS reserves the right to update the software as needed 
pursuant to further analysis and review. No warranty, expressed or 
implied, is made by the USGS or the U.S. Government as to the 
functionality of the software and related material nor shall the 
fact of release constitute any such warranty. Furthermore, the 
software is released on condition that neither the USGS nor the U.S. 
Government shall be held liable for any damages resulting from its 
authorized or unauthorized use. Also refer to the USGS Water 
Resources Software User Rights Notice for complete use, copyright, 
and distribution information.


As a work of the United States Government, this USGS product is 
in the public domain within the United States. You can copy, 
modify, distribute, and perform the work, even for commercial 
purposes, all without asking permission. Additionally, USGS 
waives copyright and related rights in the work worldwide 
through CC0 1.0 Universal Public Domain Dedication 
(https://creativecommons.org/publicdomain/zero/1.0/).

The following GNU Lesser General Public License (LGPL) libraries
are used in this USGS product:

    SPARSKIT version 2.0
      ilut, luson, and qsplit 
      (https://www-users.cse.umn.edu/~saad/software/SPARSKIT/)

    RCM - Reverse Cuthill McKee Ordering
      (https://people.math.sc.edu/Burkardt/f_src/rcm/rcm.html)

    BLAS - Basic Linear Algebra Subprograms Level 1
      (https://people.math.sc.edu/Burkardt/f_src/blas1_d/blas1_d.html)

    SPARSEKIT - Sparse Matrix Utility Package
      amux, dperm, dvperm, rperm, and cperm
      (https://people.sc.fsu.edu/~jburkardt/f77_src/sparsekit/sparsekit.html)

The following BSD-3 License libraries are used in this USGS product:

    Modern Fortran DAG Library
      Copyright (c) 2018, Jacob Williams
      All rights reserved.
      (https://github.com/jacobwilliams/daglib)

MODFLOW 6 compiler options: /O2 /heap-arrays:0 /fpe:0 /traceback /nologo /fpp
/c /module:win64\mod_mf6\ /object:win64\obj_mf6\

System command used to initiate simulation:
C:\Users\gross.DESKTOP-AIRQM2M\anaconda3\Scripts\mf6.exe

MODFLOW was compiled using uniform precision.

Real Variables
  KIND: 8
  TINY (smallest non-zero value):    2.225074-308
  HUGE (largest value):    1.797693+308
  PRECISION: 15
  SIZE IN BITS: 64

Integer Variables
  KIND: 4
  HUGE (largest value): 2147483647
  SIZE IN BITS: 32

Long Integer Variables
  KIND: 8
  HUGE (largest value): 9223372036854775807
  SIZE IN BITS: 64

Logical Variables
  KIND: 4
  SIZE IN BITS: 32
 
 NAMEFILE OPTIONS:
 END NAMEFILE OPTIONS:

 DIS -- STRUCTURED GRID DISCRETIZATION PACKAGE, VERSION 2 : 3/27/2014 - INPUT READ FROM MEMPATH: __INPUT__/MP7-P01-PRT/DIS                         


 MIP MODEL INPUT PACKAGE INPUT READ FROM MEMPATH: __INPUT__/MP7-P01-PRT/MIP                         


 PRP PARTICLE RELEASE POINT PACKAGE INPUT READ FROM UNIT 1008


 PRP PARTICLE RELEASE POINT PACKAGE INPUT READ FROM UNIT 1009

 Setting Discretization Options
    Model length unit [0=UND, 1=FEET, 2=METERS, 3=CENTIMETERS] set as 1
 End Setting Discretization Options

 Setting Discretization Dimensions
    NLAY = 3
    NROW = 21
    NCOL = 20
 End Setting Discretization Dimensions

 Setting Discretization Griddata
    DELR set from input file
    DELC set from input file
    TOP set from input file
    BOTM set from input file
 End Setting Discretization Griddata


 FMI -- FLOW MODEL INTERFACE, VERSION 2, 8/17/2023 INPUT READ FROM UNIT 1007


 # File generated by Flopy version 3.9.1 on 05/16/2025 at 11:06:01.
 PROCESSING FMI OPTIONS
 END OF FMI OPTIONS
 PROCESSING FMI PACKAGEDATA

 OPENED ..\gwf\mp7-p01-gwf.hds
 FILE TYPE:DATA(BINARY)   UNIT 1012   STATUS:UNKNOWN             
 FORMAT:UNFORMATTED            ACCESS:STREAM              
 ACTION:READWRITE           

Reading binary file to determine number of records per time step.
Detected 3 unique records in binary file.

 OPENED ..\gwf\mp7-p01-gwf.cbb
 FILE TYPE:DATA(BINARY)   UNIT 1013   STATUS:UNKNOWN             
 FORMAT:UNFORMATTED            ACCESS:STREAM              
 ACTION:READWRITE           

Reading budget file to determine number of terms per time step.
    1.00000        FLOW-JA-FACE                 
    1.00000          DATA-SPDIS NPF             
    1.00000            DATA-SAT NPF             
    1.00000                 WEL WEL_0           
    1.00000                 RIV RIV_0           
    1.00000                RCHA RCHA_0          
Detected 6 unique flow terms in budget file.
 END OF FMI PACKAGEDATA

 PRP   -- PRP PACKAGE, VERSION 8, 2/22/2014 INPUT READ FROM UNIT 1008
 # File generated by Flopy version 3.9.1 on 05/16/2025 at 11:06:01.

 PROCESSING PRP OPTIONS
 END OF PRP OPTIONS
 PROCESSING PARTICLE INPUT DIMENSIONS
 END OF PARTICLE INPUT DIMENSIONS

 PROCESSING PRP1A PACKAGEDATA
 END OF PRP1A PACKAGEDATA

 PRP   -- PRP PACKAGE, VERSION 8, 2/22/2014 INPUT READ FROM UNIT 1009
 # File generated by Flopy version 3.9.1 on 05/16/2025 at 11:06:01.

 PROCESSING PRP OPTIONS
 END OF PRP OPTIONS
 PROCESSING PARTICLE INPUT DIMENSIONS
 END OF PARTICLE INPUT DIMENSIONS

 PROCESSING PRP1B PACKAGEDATA
 END OF PRP1B PACKAGEDATA
      THE LAST TIME STEP WILL BE PRINTED
 # File generated by Flopy version 3.9.1 on 05/16/2025 at 11:06:01.

 PROCESSING OC OPTIONS

    BUDGET INFORMATION WILL BE WRITTEN TO:
      UNIT NUMBER: 1014
      FILE NAME: mp7-p01-prt.cbb

 OPENED mp7-p01-prt.cbb
 FILE TYPE:DATA(BINARY)   UNIT 1014   STATUS:REPLACE             
 FORMAT:UNFORMATTED            ACCESS:STREAM              
 ACTION:READWRITE           


 OPENED mp7-p01-prt.trk
 FILE TYPE:DATA(BINARY)   UNIT 1015   STATUS:REPLACE             
 FORMAT:UNFORMATTED            ACCESS:STREAM              
 ACTION:READWRITE           

    PARTICLE TRACKS WILL BE SAVED TO BINARY FILE: mp7-p01-prt.trk
    OPENED ON UNIT: 1015

 OPENED mp7-p01-prt.trk.hdr
 FILE TYPE:CSV   UNIT 1016   STATUS:REPLACE             
 FORMAT:FORMATTED              ACCESS:SEQUENTIAL          
 ACTION:READWRITE           


 OPENED mp7-p01-prt.trk.csv
 FILE TYPE:CSV   UNIT 1017   STATUS:REPLACE             
 FORMAT:FORMATTED              ACCESS:SEQUENTIAL          
 ACTION:READWRITE           

    PARTICLE TRACKS WILL BE SAVED TO CSV FILE: mp7-p01-prt.trk.csv
    OPENED ON UNIT: 1017
 END OF OC OPTIONS

 PROCESSING OUTPUT CONTROL DIMENSIONS
    NTRACKTIMES =      72
 END OF OUTPUT CONTROL DIMENSIONS

 PROCESSING OUTPUT CONTROL TRACKTIMES

start timestep kper="1" kstp="1" mode="normal"


 BEGIN READING OUTPUT CONTROL FOR STRESS PERIOD 1
      ALL TIME STEPS WILL BE SAVED

 END READING OUTPUT CONTROL FOR STRESS PERIOD 1

 FMI READING BUDGET TERMS FOR KSTP 1 KPER 1
    1.00000        FLOW-JA-FACE                 
    1.00000          DATA-SPDIS NPF             
    1.00000            DATA-SAT NPF             
    1.00000                 WEL WEL_0           
    1.00000                 RIV RIV_0           
    1.00000                RCHA RCHA_0          

 FMI READING HEAD FOR KSTP 1 KPER 1


  MASS BUDGET FOR ENTIRE MODEL AT END OF TIME STEP    1, STRESS PERIOD   1
  ---------------------------------------------------------------------------------------------------

     CUMULATIVE MASS      M       RATES FOR THIS TIME STEP      M/T          PACKAGE NAME    
     ------------------                 ------------------------                     ----------------

           IN:                                      IN:
           ---                                      ---
             STORAGE =           0.0000               STORAGE =           0.0000     PRT                              
                 PRP =          21.0000                   PRP =          21.0000     PRP1A                            
                 PRP =        3780.0000                   PRP =        3780.0000     PRP1B                            

            TOTAL IN =        3801.0000              TOTAL IN =        3801.0000

          OUT:                                     OUT:
          ----                                     ----
             STORAGE =        3801.0000               STORAGE =        3801.0000     PRT                              
                 PRP =           0.0000                   PRP =           0.0000     PRP1A                            
                 PRP =           0.0000                   PRP =           0.0000     PRP1B                            

           TOTAL OUT =        3801.0000             TOTAL OUT =        3801.0000

            IN - OUT =           0.0000              IN - OUT =           0.0000

 PERCENT DISCREPANCY =           0.00     PERCENT DISCREPANCY =           0.00




         TIME SUMMARY AT END OF TIME STEP    1 IN STRESS PERIOD    1
                    SECONDS     MINUTES      HOURS       DAYS        YEARS
                    -----------------------------------------------------------
   TIME STEP LENGTH  86400.      1440.0      24.000      1.0000     2.73785E-03
 STRESS PERIOD TIME  86400.      1440.0      24.000      1.0000     2.73785E-03
         TOTAL TIME  86400.      1440.0      24.000      1.0000     2.73785E-03


end timestep

