                                   MODFLOW 6
                U.S. GEOLOGICAL SURVEY MODULAR HYDROLOGIC MODEL
                             TRANSPORT MODEL (GWT)
                            VERSION 6.6.0 12/20/2024

   MODFLOW 6 compiled Dec 31 2024 17:10:16 with Intel(R) Fortran Intel(R) 64
   Compiler Classic for applications running on Intel(R) 64, Version 2021.7.0
                             Build 20220726_000000

This software has been approved for release by the U.S. Geological 
Survey (USGS). Although the software has been subjected to rigorous 
review, the USGS reserves the right to update the software as needed 
pursuant to further analysis and review. No warranty, expressed or 
implied, is made by the USGS or the U.S. Government as to the 
functionality of the software and related material nor shall the 
fact of release constitute any such warranty. Furthermore, the 
software is released on condition that neither the USGS nor the U.S. 
Government shall be held liable for any damages resulting from its 
authorized or unauthorized use. Also refer to the USGS Water 
Resources Software User Rights Notice for complete use, copyright, 
and distribution information.


As a work of the United States Government, this USGS product is 
in the public domain within the United States. You can copy, 
modify, distribute, and perform the work, even for commercial 
purposes, all without asking permission. Additionally, USGS 
waives copyright and related rights in the work worldwide 
through CC0 1.0 Universal Public Domain Dedication 
(https://creativecommons.org/publicdomain/zero/1.0/).

The following GNU Lesser General Public License (LGPL) libraries
are used in this USGS product:

    SPARSKIT version 2.0
      ilut, luson, and qsplit 
      (https://www-users.cse.umn.edu/~saad/software/SPARSKIT/)

    RCM - Reverse Cuthill McKee Ordering
      (https://people.math.sc.edu/Burkardt/f_src/rcm/rcm.html)

    BLAS - Basic Linear Algebra Subprograms Level 1
      (https://people.math.sc.edu/Burkardt/f_src/blas1_d/blas1_d.html)

    SPARSEKIT - Sparse Matrix Utility Package
      amux, dperm, dvperm, rperm, and cperm
      (https://people.sc.fsu.edu/~jburkardt/f77_src/sparsekit/sparsekit.html)

The following BSD-3 License libraries are used in this USGS product:

    Modern Fortran DAG Library
      Copyright (c) 2018, Jacob Williams
      All rights reserved.
      (https://github.com/jacobwilliams/daglib)

MODFLOW 6 compiler options: /O2 /heap-arrays:0 /fpe:0 /traceback /nologo /fpp
/c /module:win64\mod_mf6\ /object:win64\obj_mf6\

System command used to initiate simulation:
C:\Users\gross.DESKTOP-AIRQM2M\anaconda3\Scripts\mf6.exe

MODFLOW was compiled using uniform precision.

Real Variables
  KIND: 8
  TINY (smallest non-zero value):    2.225074-308
  HUGE (largest value):    1.797693+308
  PRECISION: 15
  SIZE IN BITS: 64

Integer Variables
  KIND: 4
  HUGE (largest value): 2147483647
  SIZE IN BITS: 32

Long Integer Variables
  KIND: 8
  HUGE (largest value): 9223372036854775807
  SIZE IN BITS: 64

Logical Variables
  KIND: 4
  SIZE IN BITS: 32
 
 NAMEFILE OPTIONS:
    FLOWS WILL BE SAVED TO BUDGET FILE SPECIFIED IN OUTPUT CONTROL
 END NAMEFILE OPTIONS:

 DIS -- STRUCTURED GRID DISCRETIZATION PACKAGE, VERSION 2 : 3/27/2014 - INPUT READ FROM MEMPATH: __INPUT__/GWT_P04-MF6/DIS                         


 DSP-- DISPERSION PACKAGE, VERSION 1, 1/24/2018 INPUT READ FROM MEMPATH: __INPUT__/GWT_P04-MF6/DSP                         


 Setting Discretization Options
 End Setting Discretization Options

 Setting Discretization Dimensions
    NLAY = 1
    NROW = 100
    NCOL = 100
 End Setting Discretization Dimensions

 Setting Discretization Griddata
    DELR set from input file
    DELC set from input file
    TOP set from input file
    BOTM set from input file
    IDOMAIN set from input file
 End Setting Discretization Griddata


 FMI -- FLOW MODEL INTERFACE,' VERSION 2, 8/17/2023
  FLOWS PROVIDED BY A GWF MODEL IN THIS SIMULATION

 ADV-- ADVECTION PACKAGE, VERSION 1, 8/25/2017 INPUT READ FROM UNIT 1015


 # File generated by Flopy version 3.9.1 on 02/24/2025 at 17:17:50.
 PROCESSING ADVECTION OPTIONS
    ADVECTION WEIGHTING SCHEME HAS BEEN SET TO: TVD
 END OF ADVECTION OPTIONS
 Setting DSP Options
    XT3D formulation [0=INACTIVE, 1=ACTIVE, 3=ACTIVE RHS] set to: 0
 End Setting DSP Options

 Setting DSP Griddata
    ALH set from input file
    ATH1 set from input file
 End Setting DSP Griddata

    STRT set from input file

 MST -- MOBILE STORAGE AND TRANSFER PACKAGE, VERSION 1, 7/29/2020 INPUT READ FROM UNIT 1014


 # File generated by Flopy version 3.9.1 on 02/24/2025 at 17:17:50.
 PROCESSING MOBILE STORAGE AND TRANSFER OPTIONS
 END OF MOBILE STORAGE AND TRANSFER OPTIONS
 PROCESSING GRIDDATA

   MOBILE DOMAIN POROSITY =  0.1400000    
 END PROCESSING GRIDDATA

 SSM -- SOURCE-SINK MIXING PACKAGE, VERSION 1, 8/25/2017 INPUT READ FROM UNIT 1017


 # File generated by Flopy version 3.9.1 on 02/24/2025 at 17:17:50.
 PROCESSING SSM OPTIONS
 END OF SSM OPTIONS
 PROCESSING SOURCES
 AUX SOURCE DETECTED.
    USING AUX COLUMN 1 IN PACKAGE WEL-1
 END PROCESSING SOURCES
 OPTIONAL FILEINPUT BLOCK NOT FOUND.  CONTINUING.
      THE LAST TIME STEP WILL BE PRINTED
      THE LAST TIME STEP WILL BE PRINTED
 # File generated by Flopy version 3.9.1 on 02/24/2025 at 17:17:50.

 PROCESSING OC OPTIONS

    BUDGET INFORMATION WILL BE WRITTEN TO:
      UNIT NUMBER: 1027
      FILE NAME: gwt_p04-mf6.cbc

 OPENED gwt_p04-mf6.cbc
 FILE TYPE:DATA(BINARY)   UNIT 1027   STATUS:REPLACE             
 FORMAT:UNFORMATTED            ACCESS:STREAM              
 ACTION:READWRITE           

    CONCENTRATION INFORMATION WILL BE WRITTEN TO:
      UNIT NUMBER: 1028
      FILE NAME: gwt_p04-mf6.ucn

 OPENED gwt_p04-mf6.ucn
 FILE TYPE:DATA(BINARY)   UNIT 1028   STATUS:REPLACE             
 FORMAT:UNFORMATTED            ACCESS:STREAM              
 ACTION:READWRITE           

 END OF OC OPTIONS

start timestep kper="1" kstp="1" mode="normal"


 BEGIN READING OUTPUT CONTROL FOR STRESS PERIOD 1
      THE LAST TIME STEP WILL BE SAVED
      THE LAST TIME STEP WILL BE SAVED
      THE LAST TIME STEP WILL BE PRINTED
      THE LAST TIME STEP WILL BE PRINTED

 END READING OUTPUT CONTROL FOR STRESS PERIOD 1

end timestep


start timestep kper="1" kstp="2" mode="normal"


end timestep


start timestep kper="1" kstp="3" mode="normal"


end timestep


start timestep kper="1" kstp="4" mode="normal"


end timestep


start timestep kper="1" kstp="5" mode="normal"


end timestep


start timestep kper="1" kstp="6" mode="normal"


end timestep


start timestep kper="1" kstp="7" mode="normal"


end timestep


start timestep kper="1" kstp="8" mode="normal"


end timestep


start timestep kper="1" kstp="9" mode="normal"


end timestep


start timestep kper="1" kstp="10" mode="normal"


end timestep


start timestep kper="1" kstp="11" mode="normal"


end timestep


start timestep kper="1" kstp="12" mode="normal"


end timestep


start timestep kper="1" kstp="13" mode="normal"


end timestep


start timestep kper="1" kstp="14" mode="normal"


end timestep


start timestep kper="1" kstp="15" mode="normal"


end timestep


start timestep kper="1" kstp="16" mode="normal"


end timestep


start timestep kper="1" kstp="17" mode="normal"


end timestep


start timestep kper="1" kstp="18" mode="normal"


end timestep


start timestep kper="1" kstp="19" mode="normal"


end timestep


start timestep kper="1" kstp="20" mode="normal"


end timestep


start timestep kper="1" kstp="21" mode="normal"


end timestep


start timestep kper="1" kstp="22" mode="normal"


end timestep


start timestep kper="1" kstp="23" mode="normal"


end timestep


start timestep kper="1" kstp="24" mode="normal"


end timestep


start timestep kper="1" kstp="25" mode="normal"


end timestep


start timestep kper="1" kstp="26" mode="normal"


end timestep


start timestep kper="1" kstp="27" mode="normal"


end timestep


start timestep kper="1" kstp="28" mode="normal"


end timestep


start timestep kper="1" kstp="29" mode="normal"


end timestep


start timestep kper="1" kstp="30" mode="normal"


end timestep


start timestep kper="1" kstp="31" mode="normal"


end timestep


start timestep kper="1" kstp="32" mode="normal"


end timestep


start timestep kper="1" kstp="33" mode="normal"


end timestep


start timestep kper="1" kstp="34" mode="normal"


end timestep


start timestep kper="1" kstp="35" mode="normal"


end timestep


start timestep kper="1" kstp="36" mode="normal"


end timestep


start timestep kper="1" kstp="37" mode="normal"


end timestep


start timestep kper="1" kstp="38" mode="normal"


end timestep


start timestep kper="1" kstp="39" mode="normal"


end timestep


start timestep kper="1" kstp="40" mode="normal"


end timestep


start timestep kper="1" kstp="41" mode="normal"


end timestep


start timestep kper="1" kstp="42" mode="normal"


end timestep


start timestep kper="1" kstp="43" mode="normal"


end timestep


start timestep kper="1" kstp="44" mode="normal"


end timestep


start timestep kper="1" kstp="45" mode="normal"


end timestep


start timestep kper="1" kstp="46" mode="normal"


end timestep


start timestep kper="1" kstp="47" mode="normal"


end timestep


start timestep kper="1" kstp="48" mode="normal"


end timestep


start timestep kper="1" kstp="49" mode="normal"


end timestep


start timestep kper="1" kstp="50" mode="normal"


end timestep


start timestep kper="1" kstp="51" mode="normal"


end timestep


start timestep kper="1" kstp="52" mode="normal"


end timestep


start timestep kper="1" kstp="53" mode="normal"


end timestep


start timestep kper="1" kstp="54" mode="normal"


end timestep


start timestep kper="1" kstp="55" mode="normal"


end timestep


start timestep kper="1" kstp="56" mode="normal"


end timestep


start timestep kper="1" kstp="57" mode="normal"


end timestep


start timestep kper="1" kstp="58" mode="normal"


end timestep


start timestep kper="1" kstp="59" mode="normal"


end timestep


start timestep kper="1" kstp="60" mode="normal"


end timestep


start timestep kper="1" kstp="61" mode="normal"


end timestep


start timestep kper="1" kstp="62" mode="normal"


end timestep


start timestep kper="1" kstp="63" mode="normal"


end timestep


start timestep kper="1" kstp="64" mode="normal"


end timestep


start timestep kper="1" kstp="65" mode="normal"


end timestep


start timestep kper="1" kstp="66" mode="normal"


end timestep


start timestep kper="1" kstp="67" mode="normal"


end timestep


start timestep kper="1" kstp="68" mode="normal"


end timestep


start timestep kper="1" kstp="69" mode="normal"


end timestep


start timestep kper="1" kstp="70" mode="normal"


end timestep


start timestep kper="1" kstp="71" mode="normal"


end timestep


start timestep kper="1" kstp="72" mode="normal"


end timestep


start timestep kper="1" kstp="73" mode="normal"


end timestep


start timestep kper="1" kstp="74" mode="normal"


end timestep


start timestep kper="1" kstp="75" mode="normal"


end timestep


start timestep kper="1" kstp="76" mode="normal"


end timestep


start timestep kper="1" kstp="77" mode="normal"


end timestep


start timestep kper="1" kstp="78" mode="normal"


end timestep


start timestep kper="1" kstp="79" mode="normal"


end timestep


start timestep kper="1" kstp="80" mode="normal"


end timestep


start timestep kper="1" kstp="81" mode="normal"


end timestep


start timestep kper="1" kstp="82" mode="normal"


end timestep


start timestep kper="1" kstp="83" mode="normal"


end timestep


start timestep kper="1" kstp="84" mode="normal"


end timestep


start timestep kper="1" kstp="85" mode="normal"


end timestep


start timestep kper="1" kstp="86" mode="normal"


end timestep


start timestep kper="1" kstp="87" mode="normal"


end timestep


start timestep kper="1" kstp="88" mode="normal"


end timestep


start timestep kper="1" kstp="89" mode="normal"


end timestep


start timestep kper="1" kstp="90" mode="normal"


end timestep


start timestep kper="1" kstp="91" mode="normal"


end timestep


start timestep kper="1" kstp="92" mode="normal"


end timestep


start timestep kper="1" kstp="93" mode="normal"


end timestep


start timestep kper="1" kstp="94" mode="normal"


end timestep


start timestep kper="1" kstp="95" mode="normal"


end timestep


start timestep kper="1" kstp="96" mode="normal"


end timestep


start timestep kper="1" kstp="97" mode="normal"


end timestep


start timestep kper="1" kstp="98" mode="normal"


end timestep


start timestep kper="1" kstp="99" mode="normal"


end timestep


start timestep kper="1" kstp="100" mode="normal"

 UBDSV1 SAVING  STORAGE-AQUEOUS ON UNIT   1027 AT TIME STEP    100, STRESS PERIOD      1
 UBDSV1 SAVING     FLOW-JA-FACE ON UNIT   1027 AT TIME STEP    100, STRESS PERIOD      1
 UBDSV06 SAVING  SOURCE-SINK MIX IN MODEL GWT_P04-MF6      PACKAGE GWT_P04-MF6     CONNECTED TO MODEL GWT_P04-MF6      PACKAGE SSM              ON UNIT   1027 AT TIME STEP    100, STRESS PERIOD      1
1
  CONCENTRATION IN LAYER   1 AT END OF TIME STEP 100 IN STRESS PERIOD    1
  ---------------------------------------------------------------------------

 ........................................................................................................................................................................................................................................................................................................................................................................................................................................................................................................................................................................................................................................................................................................................................................................................................................................................................................................................................................................................................................................
   1     2.098487E-25    5.707584E-25    2.081929E-24    7.529911E-24    2.619618E-23    8.798113E-23    2.863790E-22    9.052812E-22    2.781717E-21    8.311487E-21
         2.414985E-20    6.823355E-20    1.874443E-19    5.005568E-19    1.299161E-18    3.277350E-18    8.039836E-18    1.918948E-17    4.451674E-17    9.996349E-17
         2.167778E-16    4.713543E-16    1.037633E-15    2.634610E-15    6.763110E-15    1.713972E-14    4.273466E-14    1.047885E-13    2.527083E-13    5.994141E-13
         1.398503E-12    3.209625E-12    7.246458E-12    1.609552E-11    3.517395E-11    7.563186E-11    1.600253E-10    3.332017E-10    6.828045E-10    1.377191E-09
         2.734258E-09    5.344091E-09    1.028346E-08    1.948407E-08    3.635298E-08    6.679852E-08    1.208948E-07    2.155316E-07    3.785530E-07    6.550968E-07
         1.117118E-06    1.877412E-06    3.109857E-06    5.078036E-06    8.174856E-06    1.297623E-05    2.031221E-05    3.135898E-05    4.775509E-05    7.174429E-05
         1.063463E-04    1.555545E-04    2.245564E-04    3.199702E-04    4.500831E-04    6.250770E-04    8.572160E-04    1.160971E-03    1.553049E-03    2.052297E-03
         2.679445E-03    3.456663E-03    4.406920E-03    5.553120E-03    6.917045E-03    8.518113E-03    1.037201E-02    1.248925E-02    1.487377E-02    1.752159E-02
         2.041976E-02    2.354554E-02    2.686607E-02    3.033842E-02    3.391026E-02    3.752102E-02    4.110354E-02    4.458626E-02    4.789564E-02    5.095884E-02
         5.370609E-02    5.607411E-02    5.800515E-02    5.931861E-02    5.954726E-02    5.741131E-02    5.417207E-02    5.025415E-02    4.629474E-02    3.981676E-02
   2     1.678955E-25    7.457076E-25    2.923634E-24    1.070076E-23    3.738641E-23    1.259707E-22    4.112711E-22    1.303777E-21    4.016772E-21    1.203055E-20
         3.503120E-20    9.916606E-20    2.728700E-19    7.297129E-19    1.896176E-18    4.788367E-18    1.175906E-17    2.809856E-17    6.520746E-17    1.459436E-16
         3.123775E-16    6.873670E-16    1.976075E-15    5.256259E-15    1.358242E-14    3.442229E-14    8.572540E-14    2.098869E-13    5.052789E-13    1.196135E-12
         2.784575E-12    6.375175E-12    1.435511E-11    3.179292E-11    6.926181E-11    1.484324E-10    3.129460E-10    6.491593E-10    1.324988E-09    2.661284E-09
         5.260530E-09    1.023457E-08    1.959998E-08    3.695160E-08    6.858814E-08    1.253578E-07    2.256262E-07    3.999579E-07    6.983562E-07    1.201242E-06
         2.035768E-06    3.399575E-06    5.594676E-06    9.074758E-06    1.450981E-05    2.287240E-05    3.555031E-05    5.448973E-05    8.237285E-05    1.228318E-04
         1.806983E-04    2.622851E-04    3.756895E-04    5.311052E-04    7.411192E-04    1.020967E-03    1.388712E-03    1.865302E-03    2.474475E-03    3.242456E-03
         4.197419E-03    5.368682E-03    6.785625E-03    8.476343E-03    1.046606E-02    1.277536E-02    1.541832E-02    1.840069E-02    2.171814E-02    2.535484E-02
         2.928243E-02    3.345947E-02    3.783157E-02    4.233216E-02    4.688397E-02    5.140122E-02    5.579232E-02    5.996319E-02    6.382082E-02    6.727698E-02
         7.024981E-02    7.265857E-02    7.434253E-02    7.467704E-02    7.211872E-02    6.820228E-02    6.352241E-02    5.839342E-02    5.320159E-02    4.629474E-02
   3     2.343727E-25    1.074419E-24    4.249643E-24    1.561814E-23    5.475136E-23    1.850817E-22    6.061611E-22    1.927328E-21    5.954224E-21    1.787793E-20
         5.217354E-20    1.479796E-19    4.078712E-19    1.092292E-18    2.841721E-18    7.183620E-18    1.766142E-17    4.225700E-17    9.808376E-17    2.185961E-16
         4.568024E-16    1.277388E-15    3.403422E-15    8.909923E-15    2.293653E-14    5.804033E-14    1.443694E-13    3.530133E-13    8.486029E-13    2.005580E-12
         4.660386E-12    1.064818E-11    2.392370E-11    5.285782E-11    1.148549E-10    2.454612E-10    5.159932E-10    1.067015E-09    2.170706E-09    4.344867E-09
         8.557357E-09    1.658573E-08    3.163783E-08    5.940232E-08    1.097927E-07    1.997866E-07    3.579591E-07    6.315782E-07    1.097490E-06    1.878489E-06
         3.167425E-06    5.261989E-06    8.613834E-06    1.389645E-05    2.209684E-05    3.463657E-05    5.352754E-05    8.156754E-05    1.225789E-04    1.816908E-04
         2.656624E-04    3.832382E-04    5.455196E-04    7.663311E-04    1.062549E-03    1.454352E-03    1.965351E-03    2.622542E-03    3.456039E-03    4.498523E-03
         5.784397E-03    7.348598E-03    9.225086E-03    1.144503E-02    1.403474E-02    1.701351E-02    2.039134E-02    2.416682E-02    2.832536E-02    3.283769E-02
         3.765915E-02    4.272952E-02    4.797375E-02    5.330353E-02    5.861965E-02    6.381507E-02    6.877866E-02    7.339936E-02    7.757071E-02    8.119582E-02
         8.418772E-02    8.644089E-02    8.745441E-02    8.531822E-02    8.121537E-02    7.607894E-02    7.033902E-02    6.429436E-02    5.839342E-02    5.025415E-02
   4     3.388101E-25    1.557933E-24    6.180318E-24    2.278459E-23    8.013526E-23    2.717810E-22    8.929566E-22    2.847788E-21    8.822343E-21    2.655601E-20
         7.767010E-20    2.207162E-19    6.093449E-19    1.634080E-18    4.256023E-18    1.076948E-17    2.650892E-17    6.351572E-17    1.474000E-16    3.276050E-16
         8.093185E-16    2.164521E-15    5.769601E-15    1.511683E-14    3.890040E-14    9.835236E-14    2.443707E-13    5.967519E-13    1.432346E-12    3.379369E-12
         7.837578E-12    1.786951E-11    4.005496E-11    8.827609E-11    1.912958E-10    4.076409E-10    8.542735E-10    1.760765E-09    3.569702E-09    7.119194E-09
         1.396825E-08    2.696569E-08    5.122555E-08    9.576709E-08    1.762183E-07    3.191848E-07    5.691714E-07    9.993275E-07    1.727793E-06    2.942056E-06
         4.934498E-06    8.153156E-06    1.327267E-05    2.129122E-05    3.365988E-05    5.245118E-05    8.057312E-05    1.220336E-04    1.822573E-04    2.684538E-04
         3.900285E-04    5.590213E-04    7.905492E-04    1.103218E-03    1.519461E-03    2.065746E-03    2.772599E-03    3.674373E-03    4.808717E-03    6.215672E-03
         7.936393E-03    1.001146E-02    1.247881E-02    1.537140E-02    1.871460E-02    2.252351E-02    2.680043E-02    3.153257E-02    3.669015E-02    4.222534E-02
         4.807183E-02    5.414547E-02    6.034584E-02    6.655886E-02    7.266028E-02    7.851992E-02    8.400642E-02    8.899216E-02    9.335814E-02    9.699843E-02
         9.981029E-02    0.101525        0.100085        9.586628E-02    9.030658E-02    8.394578E-02    7.715980E-02    7.033902E-02    6.352241E-02    5.417207E-02
   5     4.894143E-25    2.254617E-24    8.967786E-24    3.316392E-23    1.170284E-22    3.982374E-22    1.312697E-21    4.199238E-21    1.304565E-20    3.936726E-20
         1.153924E-19    3.285256E-19    9.084080E-19    2.439247E-18    6.359698E-18    1.610702E-17    3.969558E-17    9.525827E-17    2.206751E-16    4.725121E-16
         1.339373E-15    3.644900E-15    9.716764E-15    2.543132E-14    6.537979E-14    1.651347E-13    4.098265E-13    9.994424E-13    2.395165E-12    5.641002E-12
         1.305706E-11    2.970502E-11    6.642608E-11    1.460170E-10    3.155427E-10    6.704067E-10    1.400498E-09    2.876938E-09    5.811986E-09    1.154805E-08
         2.256986E-08    4.339426E-08    8.208590E-08    1.527876E-07    2.798617E-07    5.045313E-07    8.953173E-07    1.564106E-06    2.690375E-06    4.556963E-06
         7.601746E-06    1.249069E-05    2.021883E-05    3.224656E-05    5.067935E-05    7.849862E-05    1.198505E-04    1.803964E-04    2.677263E-04    3.918264E-04
         5.655886E-04    8.053358E-04    1.131327E-03    1.568191E-03    2.145237E-03    2.896558E-03    3.860871E-03    5.081005E-03    6.602986E-03    8.474666E-03
         1.074388E-02    1.345613E-02    1.665193E-02    2.036376E-02    2.461298E-02    2.940673E-02    3.473512E-02    4.056887E-02    4.685777E-02    5.352994E-02
         6.049230E-02    6.763210E-02    7.481970E-02    8.191247E-02    8.875964E-02    9.520788E-02    0.101107        0.106316        0.110703        0.114138    
         0.116402        0.116144        0.111934        0.106030        9.909631E-02    9.157776E-02    8.394578E-02    7.607894E-02    6.820228E-02    5.741131E-02
   6     7.052115E-25    3.254790E-24    1.298115E-23    4.815926E-23    1.705231E-22    5.822649E-22    1.925662E-21    6.179223E-21    1.925132E-20    5.824033E-20
         1.710839E-19    4.879696E-19    1.351322E-18    3.633002E-18    9.480920E-18    2.403009E-17    5.929636E-17    1.425582E-16    3.304166E-16    8.270141E-16
         2.246867E-15    6.091441E-15    1.623002E-14    4.245389E-14    1.090585E-13    2.751922E-13    6.821647E-13    1.661290E-12    3.974912E-12    9.344568E-12
         2.158571E-11    4.899784E-11    1.093003E-10    2.396251E-10    5.163508E-10    1.093696E-09    2.277337E-09    4.662064E-09    9.384121E-09    1.857458E-08
         3.615781E-08    6.922967E-08    1.303889E-07    2.416016E-07    4.404779E-07    7.902582E-07    1.395377E-06    2.425213E-06    4.149573E-06    6.990566E-06
         1.159680E-05    1.894712E-05    3.049230E-05    4.834408E-05    7.552082E-05    1.162587E-04    1.763946E-04    2.638226E-04    3.890200E-04    5.656289E-04
         8.110694E-04    1.147145E-03    1.600587E-03    2.203478E-03    2.993459E-03    4.013662E-03    5.312246E-03    6.941486E-03    8.956340E-03    1.141246E-02
         1.436365E-02    1.785887E-02    2.193876E-02    2.663207E-02    3.195199E-02    3.789273E-02    4.442663E-02    5.150205E-02    5.904227E-02    6.694562E-02
         7.508703E-02    8.332083E-02    9.148508E-02    9.940690E-02    0.106909        0.113816        0.119964        0.125202        0.129387        0.132288    
         0.133066        0.129247        0.123149        0.115724        0.107522        9.909631E-02    9.030658E-02    8.121537E-02    7.211872E-02    5.954726E-02
   7     1.013622E-24    4.687213E-24    1.874651E-23    6.977712E-23    2.479316E-22    8.495468E-22    2.819092E-21    9.074670E-21    2.835318E-20    8.599300E-20
         2.531535E-19    7.233322E-19    2.005987E-18    5.399280E-18    1.410186E-17    3.576174E-17    8.836138E-17    2.127930E-16    4.730534E-16    1.345092E-15
         3.725006E-15    1.010995E-14    2.691855E-14    7.036127E-14    1.806018E-13    4.552686E-13    1.127192E-12    2.741161E-12    6.547875E-12    1.536454E-11
         3.541754E-11    8.020960E-11    1.784740E-10    3.902099E-10    8.383647E-10    1.770183E-09    3.673624E-09    7.493874E-09    1.502791E-08    2.962914E-08
         5.744035E-08    1.095076E-07    2.053305E-07    3.787035E-07    6.871292E-07    1.226671E-06    2.154904E-06    3.725613E-06    6.340146E-06    1.062172E-05
         1.752058E-05    2.845930E-05    4.552893E-05    7.174705E-05    1.113886E-04    1.703981E-04    2.568879E-04    3.817206E-04    5.591638E-04    8.075934E-04
         1.150206E-03    1.615686E-03    2.238750E-03    3.060492E-03    4.128409E-03    5.496035E-03    7.222051E-03    9.368817E-03    1.200027E-02    1.517915E-02
         1.896368E-02    2.340370E-02    2.853648E-02    3.438253E-02    4.094147E-02    4.818854E-02    5.607184E-02    6.451074E-02    7.339571E-02    8.258958E-02
         9.193058E-02    0.101237        0.110312        0.118954        0.126959        0.134135        0.140309        0.145325        0.149020        0.150700    
         0.147643        0.141513        0.133704        0.124891        0.115724        0.106030        9.586628E-02    8.531822E-02    7.467704E-02    5.931861E-02
   8     1.453362E-24    6.734083E-24    2.701098E-23    1.008791E-22    3.597274E-22    1.237028E-21    4.118986E-21    1.330148E-20    4.168013E-20    1.267343E-19
         3.738897E-19    1.070155E-18    2.971892E-18    8.007895E-18    2.093019E-17    5.309159E-17    1.313941E-16    3.197679E-16    7.856057E-16    2.212259E-15
         6.136635E-15    1.665612E-14    4.433121E-14    1.158084E-13    2.970216E-13    7.479903E-13    1.849645E-12    4.491454E-12    1.071061E-11    2.508393E-11
         5.769770E-11    1.303567E-10    2.893029E-10    6.307436E-10    1.351050E-09    2.843475E-09    5.880704E-09    1.195244E-08    2.387695E-08    4.688622E-08
         9.051226E-08    1.717983E-07    3.206524E-07    5.885880E-07    1.062693E-06    1.887487E-06    3.298382E-06    5.671804E-06    9.598618E-06    1.598926E-05
         2.622078E-05    4.233774E-05    6.731965E-05    1.054281E-04    1.626449E-04    2.472084E-04    3.702497E-04    5.465191E-04    7.951805E-04    1.140635E-03
         1.613317E-03    2.250380E-03    3.096182E-03    4.202451E-03    5.628024E-03    7.438022E-03    9.702380E-03    1.249365E-02    1.588404E-02    1.994177E-02
         2.472678E-02    3.028603E-02    3.664858E-02    4.382088E-02    5.178244E-02    6.048245E-02    6.983760E-02    7.973137E-02    9.001517E-02    0.100511    
         0.111018        0.121314        0.131171        0.140357        0.148649        0.155841        0.161751        0.166206        0.168873        0.166959    
         0.160936        0.152865        0.143540        0.133704        0.123149        0.111934        0.100085        8.745441E-02    7.434253E-02    5.800515E-02
   9     2.078950E-24    9.652661E-24    3.883362E-23    1.455394E-22    5.208907E-22    1.797781E-21    6.007076E-21    1.946174E-20    6.116241E-20    1.864495E-19
         5.512340E-19    1.580409E-18    4.394660E-18    1.185444E-17    3.100511E-17    7.862907E-17    1.946966E-16    4.746921E-16    1.297184E-15    3.642258E-15
         1.006218E-14    2.727273E-14    7.254120E-14    1.893835E-13    4.853305E-13    1.220939E-12    3.015308E-12    7.310911E-12    1.740351E-11    4.067744E-11
         9.335784E-11    2.104068E-10    4.657097E-10    1.012405E-09    2.161805E-09    4.534654E-09    9.345061E-09    1.892246E-08    3.765129E-08    7.362756E-08
         1.415184E-07    2.673948E-07    4.967270E-07    9.073326E-07    1.629896E-06    2.879786E-06    5.005311E-06    8.559283E-06    1.440275E-05    2.385185E-05
         3.888088E-05    6.239594E-05    9.859452E-05    1.534250E-04    2.351569E-04    3.550662E-04    5.282303E-04    7.744125E-04    1.118998E-03    1.593924E-03
         2.238519E-03    3.100144E-03    4.234525E-03    5.705617E-03    7.584888E-03    9.949873E-03    1.288193E-02    1.646311E-02    2.077225E-02    2.588020E-02
         3.184463E-02    3.870445E-02    4.647429E-02    5.513943E-02    6.465166E-02    7.492635E-02    8.584125E-02    9.723722E-02    0.108921        0.120671    
         0.132242        0.143377        0.153815        0.163302        0.171599        0.178492        0.183775        0.187122        0.186913        0.181154    
         0.172961        0.163258        0.152865        0.141513        0.129247        0.116144        0.101525        8.644089E-02    7.265857E-02    5.607411E-02
  10     2.966994E-24    1.380553E-23    5.571325E-23    2.095510E-22    7.528197E-22    2.607954E-21    8.745198E-21    2.842621E-20    8.960098E-20    2.738500E-19
         8.113597E-19    2.330026E-18    6.487263E-18    1.751870E-17    4.585569E-17    1.161993E-16    2.876755E-16    6.818542E-16    2.078432E-15    5.915408E-15
         1.636917E-14    4.437021E-14    1.179803E-13    3.078345E-13    7.882349E-13    1.980829E-12    4.885529E-12    1.182690E-11    2.810275E-11    6.555004E-11
         1.500974E-10    3.374288E-10    7.447941E-10    1.614262E-09    3.435871E-09    7.182390E-09    1.474746E-08    2.974612E-08    5.894678E-08    1.147784E-07
         2.196271E-07    4.130434E-07    7.635700E-07    1.387737E-06    2.479895E-06    4.358051E-06    7.532692E-06    1.280780E-05    2.142563E-05    3.526935E-05
         5.713956E-05    9.112204E-05    1.430638E-04    2.211713E-04    3.367398E-04    5.050113E-04    7.461455E-04    1.086268E-03    1.558535E-03    2.204134E-03
         3.073104E-03    4.224836E-03    5.728116E-03    7.660530E-03    1.010710E-02    1.315801E-02    1.690539E-02    2.143909E-02    2.684161E-02    3.318224E-02
         4.051089E-02    4.885175E-02    5.819741E-02    6.850383E-02    7.968663E-02    9.161927E-02    0.104133        0.117021        0.130040        0.142923    
         0.155383        0.167129        0.177874        0.187349        0.195312        0.201542        0.205717        0.206803        0.201781        0.193680    
         0.183755        0.172961        0.160936        0.147643        0.133066        0.116402        9.981029E-02    8.418772E-02    7.024981E-02    5.370609E-02
  11     4.224957E-24    1.970284E-23    7.976780E-23    3.011388E-22    1.086044E-21    3.776690E-21    1.271022E-20    4.145298E-20    1.310567E-19    4.016040E-19
         1.192426E-18    3.429880E-18    9.560840E-18    2.584956E-17    6.773656E-17    1.714053E-16    4.268600E-16    1.193351E-15    3.409288E-15    9.595084E-15
         2.649931E-14    7.179423E-14    1.908221E-13    4.975915E-13    1.273037E-12    3.195591E-12    7.870873E-12    1.902297E-11    4.511725E-11    1.050132E-10
         2.398909E-10    5.378815E-10    1.183859E-09    2.557962E-09    5.426407E-09    1.130319E-08    2.312111E-08    4.645007E-08    9.166170E-08    1.776925E-07
         3.384452E-07    6.334403E-07    1.165154E-06    2.106613E-06    3.744349E-06    6.543723E-06    1.124603E-05    1.900945E-05    3.160872E-05    5.171109E-05
         8.324795E-05    1.319018E-04    2.057265E-04    3.159133E-04    4.777056E-04    7.114498E-04    1.043752E-03    1.508679E-03    2.148923E-03    3.016808E-03
         4.174989E-03    5.696683E-03    7.665247E-03    1.017292E-02    1.331860E-02    1.720451E-02    2.193181E-02    2.759511E-02    3.427614E-02    4.203686E-02
         5.091233E-02    6.090393E-02    7.197342E-02    8.403837E-02    9.696955E-02    0.110591        0.124681        0.138979        0.153193        0.167008    
         0.180101        0.192151        0.202855        0.211942        0.219179        0.224311        0.226491        0.222554        0.214732        0.204738    
         0.193680        0.181154        0.166959        0.150700        0.132288        0.114138        9.699843E-02    8.119582E-02    6.727698E-02    5.095884E-02
  12     6.003279E-24    2.806117E-23    1.139856E-22    4.319663E-22    1.564072E-21    5.460269E-21    1.844409E-20    6.035830E-20    1.914127E-19    5.881218E-19
         1.750034E-18    5.041787E-18    1.406937E-17    3.808714E-17    9.997959E-17    2.520459E-16    6.091447E-16    1.887345E-15    5.472491E-15    1.543916E-14
         4.265887E-14    1.155699E-13    3.070683E-13    8.002271E-13    2.045499E-12    5.128748E-12    1.261448E-11    3.043663E-11    7.204750E-11    1.673270E-10
         3.813032E-10    8.526455E-10    1.871110E-09    4.030001E-09    8.519835E-09    1.768176E-08    3.602791E-08    7.208174E-08    1.416250E-07    2.733012E-07
         5.180725E-07    9.648277E-07    1.765566E-06    3.175116E-06    5.612353E-06    9.752372E-06    1.666198E-05    2.799414E-05    4.626001E-05    7.519995E-05
         1.202760E-04    1.893070E-04    2.932641E-04    4.472334E-04    6.715399E-04    9.930045E-04    1.446280E-03    2.075182E-03    2.933881E-03    4.087828E-03
         5.614188E-03    7.601624E-03    1.014919E-02    1.336420E-02    1.735886E-02    2.224569E-02    2.813176E-02    3.511184E-02    4.326082E-02    5.262581E-02
         6.321843E-02    7.500786E-02    8.791536E-02    0.101811        0.116512        0.131785        0.147353        0.162899        0.178082        0.192545    
         0.205933        0.217905        0.228154        0.236409        0.242456        0.245755        0.243218        0.235828        0.225919        0.214732    
         0.201781        0.186913        0.168873        0.149020        0.129387        0.110703        9.335814E-02    7.757071E-02    6.382082E-02    4.789564E-02
  13     8.512222E-24    3.988536E-23    1.625771E-22    6.185526E-22    2.248847E-21    7.882269E-21    2.672558E-20    8.776226E-20    2.791855E-19    8.601411E-19
         2.565167E-18    7.401837E-18    2.067431E-17    5.603559E-17    1.475771E-16    3.722281E-16    1.053798E-15    3.061518E-15    8.784934E-15    2.474769E-14
         6.836786E-14    1.851921E-13    4.918710E-13    1.281010E-12    3.271466E-12    8.192914E-12    2.012152E-11    4.846561E-11    1.144944E-10    2.653039E-10
         6.030396E-10    1.344710E-09    2.941936E-09    6.315439E-09    1.330414E-08    2.750639E-08    5.582090E-08    1.112070E-07    2.175195E-07    4.177876E-07
         7.880752E-07    1.460158E-06    2.657782E-06    4.753307E-06    8.354112E-06    1.443130E-05    2.450675E-05    4.091823E-05    6.718553E-05    1.085027E-04
         1.723813E-04    2.694665E-04    4.145388E-04    6.277010E-04    9.357285E-04    1.373532E-03    1.985648E-03    2.827636E-03    3.967218E-03    5.484956E-03
         7.474262E-03    1.004049E-02    1.329892E-02    1.737142E-02    2.238180E-02    2.844969E-02    3.568331E-02    4.417123E-02    5.397363E-02    6.511368E-02
         7.756955E-02    9.126792E-02    0.106080        0.121818        0.138239        0.155049        0.171911        0.188454        0.204292        0.219035    
         0.232305        0.243754        0.253076        0.259981        0.264167        0.263442        0.256614        0.246972        0.235828        0.222554    
         0.206803        0.187122        0.166206        0.145325        0.125202        0.106316        8.899216E-02    7.339936E-02    5.996319E-02    4.458626E-02
  14     1.204504E-23    5.658212E-23    2.314661E-22    8.842665E-22    3.228472E-21    1.136229E-20    3.867295E-20    1.274422E-19    4.066967E-19    1.256469E-18
         3.755723E-18    1.085451E-17    3.033852E-17    8.229380E-17    2.177217E-16    5.284969E-16    1.648704E-15    4.864624E-15    1.400422E-14    3.948690E-14
         1.091153E-13    2.955442E-13    7.846755E-13    2.042234E-12    5.210564E-12    1.303303E-11    3.196017E-11    7.684231E-11    1.811541E-10    4.187787E-10
         9.493920E-10    2.110915E-09    4.603654E-09    9.848904E-09    2.067168E-08    4.257147E-08    8.603441E-08    1.706454E-07    3.322362E-07    6.350276E-07
         1.191784E-06    2.196494E-06    3.976129E-06    7.070676E-06    1.235394E-05    2.121144E-05    3.579581E-05    5.938412E-05    9.686448E-05    1.553803E-04
         2.451585E-04    3.805401E-04    5.812196E-04    8.736772E-04    1.292759E-03    1.883327E-03    2.701849E-03    3.817770E-03    5.314446E-03    7.289404E-03
         9.853672E-03    1.312993E-02    1.724927E-02    2.234647E-02    2.855369E-02    3.599281E-02    4.476658E-02    5.494913E-02    6.657634E-02    7.963684E-02
         9.406443E-02    0.109733        0.126452        0.143971        0.161981        0.180123        0.198003        0.215202        0.231295        0.245872    
         0.258549        0.268983        0.276866        0.281782        0.282651        0.276668        0.267485        0.256614        0.243218        0.226491    
         0.205717        0.183775        0.161751        0.140309        0.119964        0.101107        8.400642E-02    6.877866E-02    5.579232E-02    4.110354E-02
  15     1.701005E-23    8.011745E-23    3.289750E-22    1.262128E-21    4.628140E-21    1.635686E-20    5.589101E-20    1.848409E-19    5.917631E-19    1.833398E-18
         5.493262E-18    1.590271E-17    4.446516E-17    1.205880E-16    3.239183E-16    8.998061E-16    2.641518E-15    7.735901E-15    2.226124E-14    6.278740E-14
         1.735302E-13    4.699683E-13    1.247291E-12    3.244042E-12    8.268741E-12    2.065594E-11    5.057375E-11    1.213686E-10    2.855081E-10    6.584080E-10
         1.488587E-09    3.299870E-09    7.173118E-09    1.529171E-08    3.197369E-08    6.558024E-08    1.319638E-07    2.605548E-07    5.048584E-07    9.601357E-07
         1.792491E-06    3.285594E-06    5.913938E-06    1.045492E-05    1.815613E-05    3.097869E-05    5.194226E-05    8.560093E-05    1.386817E-04    2.209161E-04
         3.460896E-04    5.333212E-04    8.085657E-04    1.206301E-03    1.771324E-03    2.560538E-03    3.644551E-03    5.108879E-03    7.054481E-03    9.597359E-03
         1.286693E-02    1.700290E-02    2.215060E-02    2.845447E-02    3.605006E-02    4.505465E-02    5.555696E-02    6.760660E-02    8.120398E-02    9.629160E-02
         0.112747        0.130382        0.148936        0.168089        0.187463        0.206638        0.225166        0.242589        0.258461        0.272364    
         0.283925        0.292825        0.298690        0.300613        0.295730        0.287119        0.276668        0.263442        0.245755        0.224311    
         0.201542        0.178492        0.155841        0.134135        0.113816        9.520788E-02    7.851992E-02    6.381507E-02    5.140122E-02    3.752102E-02
  16     2.397453E-23    1.132341E-22    4.667791E-22    1.798740E-21    6.625588E-21    2.351766E-20    8.068155E-20    2.677975E-19    8.601355E-19    2.672535E-18
         8.027274E-18    2.328105E-17    6.510555E-17    1.758056E-16    4.680460E-16    1.379583E-15    4.152449E-15    1.223522E-14    3.526435E-14    9.952184E-14
         2.751156E-13    7.450211E-13    1.976487E-12    5.136937E-12    1.308020E-11    3.263201E-11    7.976554E-11    1.910541E-10    4.484338E-10    1.031518E-09
         2.325579E-09    5.139307E-09    1.113382E-08    2.364835E-08    4.925250E-08    1.005968E-07    2.015252E-07    3.960294E-07    7.635632E-07    1.444612E-06
         2.682367E-06    4.889002E-06    8.748501E-06    1.537224E-05    2.652842E-05    4.497161E-05    7.490353E-05    1.225994E-04    1.972345E-04    3.119420E-04
         4.851210E-04    7.419955E-04    1.116394E-03    1.652686E-03    2.407747E-03    3.452796E-03    4.874867E-03    6.777643E-03    9.281350E-03    1.252138E-02
         1.664541E-02    2.180869E-02    2.816756E-02    3.587110E-02    4.505127E-02    5.581184E-02    6.821696E-02    8.227999E-02    9.795359E-02    0.115122    
         0.133596        0.153114        0.173343        0.193888        0.214305        0.234117        0.252833        0.269970        0.285075        0.297745    
         0.307642        0.314448        0.317384        0.313720        0.305740        0.295730        0.282651        0.264167        0.242456        0.219179    
         0.195312        0.171599        0.148649        0.126959        0.106909        8.875964E-02    7.266028E-02    5.861965E-02    4.688397E-02    3.391026E-02
  17     3.372518E-23    1.597516E-22    6.612328E-22    2.559796E-21    9.472923E-21    3.377429E-20    1.163445E-19    3.875982E-19    1.249021E-18    3.892136E-18
         1.172025E-17    3.406312E-17    9.533339E-17    2.562329E-16    6.619357E-16    2.159924E-15    6.555480E-15    1.932581E-14    5.572611E-14    1.573365E-13
         4.350252E-13    1.177945E-12    3.123702E-12    8.112585E-12    2.063525E-11    5.140921E-11    1.254518E-10    2.998794E-10    7.022354E-10    1.611101E-09
         3.621660E-09    7.977800E-09    1.722259E-08    3.644237E-08    7.559000E-08    1.537205E-07    3.065297E-07    5.994504E-07    1.149856E-06    2.163794E-06
         3.995262E-06    7.239517E-06    1.287622E-05    2.248351E-05    3.854965E-05    6.491472E-05    1.073791E-04    1.745175E-04    2.787347E-04    4.375898E-04
         6.753982E-04    1.025090E-03    1.530270E-03    2.247356E-03    3.247647E-03    4.619063E-03    6.467296E-03    8.916020E-03    1.210582E-02    1.619154E-02
         2.133772E-02    2.771206E-02    3.547688E-02    4.477874E-02    5.573680E-02    6.843040E-02    8.288679E-02    9.907011E-02    0.116872        0.136108    
         0.156511        0.177741        0.199387        0.220982        0.242023        0.261984        0.280349        0.296624        0.310368        0.321206    
         0.328854        0.332795        0.330515        0.323224        0.313720        0.300613        0.281782        0.259981        0.236409        0.211942    
         0.187349        0.163302        0.140357        0.118954        9.940690E-02    8.191247E-02    6.655886E-02    5.330353E-02    4.233216E-02    3.033842E-02
  18     4.735030E-23    2.249788E-22    9.352083E-22    3.637790E-21    1.352741E-20    4.845196E-20    1.676088E-19    5.604877E-19    1.812170E-18    5.663519E-18
         1.709820E-17    4.980917E-17    1.396566E-16    3.753554E-16    1.126258E-15    3.437722E-15    1.033375E-14    3.044832E-14    8.785515E-14    2.481832E-13
         6.863710E-13    1.858347E-12    4.925874E-12    1.278321E-11    3.247975E-11    8.080214E-11    1.968320E-10    4.695278E-10    1.096868E-09    2.509654E-09
         5.624488E-09    1.234837E-08    2.656107E-08    5.598171E-08    1.156301E-07    2.340901E-07    4.645675E-07    9.039371E-07    1.724742E-06    3.227617E-06
         5.925034E-06    1.067165E-05    1.886198E-05    3.272233E-05    5.573006E-05    9.319934E-05    1.530753E-04    2.469786E-04    3.915335E-04    6.099989E-04
         9.341913E-04    1.406650E-03    2.082942E-03    3.033945E-03    4.347862E-03    6.131694E-03    8.511787E-03    1.163311E-02    1.565685E-02    2.075610E-02
         2.710931E-02    3.489158E-02    4.426396E-02    5.536110E-02    6.827799E-02    8.305662E-02    9.967372E-02    0.118031        0.137946        0.159154    
         0.181306        0.203977        0.226680        0.248886        0.270039        0.289584        0.306993        0.321785        0.333544        0.341919    
         0.346616        0.345920        0.339409        0.330515        0.317384        0.298690        0.276866        0.253076        0.228154        0.202855    
         0.177874        0.153815        0.131171        0.110312        9.148508E-02    7.481970E-02    6.034584E-02    4.797375E-02    3.783157E-02    2.686607E-02
  19     6.635240E-23    3.162798E-22    1.320641E-21    5.162777E-21    1.929484E-20    6.943861E-20    2.412477E-19    8.098416E-19    2.627222E-18    8.234908E-18
         2.492439E-17    7.278113E-17    2.045090E-16    5.284278E-16    1.736223E-15    5.375208E-15    1.621735E-14    4.786482E-14    1.382494E-13    3.907798E-13
         1.081000E-12    2.926502E-12    7.753703E-12    2.010570E-11    5.102653E-11    1.267539E-10    3.082068E-10    7.336180E-10    1.709547E-09    3.900465E-09
         8.714080E-09    1.906543E-08    4.085504E-08    8.575851E-08    1.763614E-07    3.553781E-07    7.017918E-07    1.358406E-06    2.577690E-06    4.796131E-06
         8.751707E-06    1.566465E-05    2.750817E-05    4.740297E-05    8.017585E-05    1.331279E-04    2.170587E-04    3.475875E-04    5.467993E-04    8.452155E-04
         1.284052E-03    1.917671E-03    2.816068E-03    4.067168E-03    5.778605E-03    8.078646E-03    1.111582E-02    1.505685E-02    2.008259E-02    2.638154E-02
         3.414111E-02    4.353653E-02    5.471796E-02    6.779636E-02    8.282913E-02    9.980658E-02    0.118640        0.139156        0.161087        0.184080    
         0.207699        0.231438        0.254741        0.277023        0.297698        0.316199        0.332010        0.344677        0.353819        0.359049    
         0.359615        0.353999        0.345920        0.332795        0.314448        0.292825        0.268983        0.243754        0.217905        0.192151    
         0.167129        0.143377        0.121314        0.101237        8.332083E-02    6.763210E-02    5.414547E-02    4.272952E-02    3.345947E-02    2.354554E-02
  20     9.280021E-23    4.438476E-22    1.862041E-21    7.317373E-21    2.749060E-20    9.942193E-20    3.469588E-19    1.169287E-18    3.806323E-18    1.196608E-17
         3.630708E-17    1.062715E-16    3.022555E-16    8.869192E-16    2.738323E-15    8.422326E-15    2.542767E-14    7.514037E-14    2.172384E-13    6.144270E-13
         1.700093E-12    4.602014E-12    1.218720E-11    3.157577E-11    8.004153E-11    1.985233E-10    4.818038E-10    1.144260E-09    2.659583E-09    6.050336E-09
         1.347319E-08    2.937236E-08    6.269628E-08    1.310510E-07    2.682873E-07    5.380097E-07    1.057021E-06    2.034965E-06    3.839639E-06    7.101773E-06
         1.287870E-05    2.290312E-05    3.995086E-05    6.836906E-05    1.148129E-04    1.892417E-04    3.062224E-04    4.865773E-04    7.593871E-04    1.164325E-03
         1.754239E-03    2.597835E-03    3.782232E-03    5.415074E-03    7.625821E-03    1.056577E-02    1.440638E-02    1.933542E-02    2.555079E-02    3.325161E-02
         4.262695E-02    5.384240E-02    6.702510E-02    8.224840E-02    9.951701E-02    0.118754        0.139793        0.162369        0.186126        0.210615    
         0.235314        0.259645        0.282994        0.304741        0.324287        0.341077        0.354630        0.364534        0.370410        0.371672    
         0.366887        0.359615        0.346616        0.328854        0.307642        0.283925        0.258549        0.232305        0.205933        0.180101    
         0.155383        0.132242        0.111018        9.193058E-02    7.508703E-02    6.049230E-02    4.807183E-02    3.765915E-02    2.928243E-02    2.041976E-02
  21     1.295353E-22    6.217584E-22    2.621328E-21    1.035763E-20    3.912534E-20    1.422254E-19    4.986202E-19    1.687183E-18    5.511418E-18    1.737863E-17
         5.285534E-17    1.546744E-16    4.337207E-16    1.343415E-15    4.247115E-15    1.315214E-14    3.980967E-14    1.178169E-13    3.409687E-13    9.649911E-13
         2.670779E-12    7.228743E-12    1.913402E-11    4.953153E-11    1.254030E-10    3.105340E-10    7.521678E-10    1.782213E-09    4.131277E-09    9.369872E-09
         2.079497E-08    4.516614E-08    9.601917E-08    1.998284E-07    4.071737E-07    8.124523E-07    1.587773E-06    3.039706E-06    5.701789E-06    1.048127E-05
         1.888557E-05    3.336203E-05    5.779311E-05    9.819710E-05    1.636892E-04    2.677576E-04    4.299000E-04    6.776444E-04    1.048941E-03    1.594860E-03
         2.382453E-03    3.497565E-03    5.047267E-03    7.161532E-03    9.993673E-03    1.371906E-02    1.853165E-02    2.463795E-02    3.224826E-02    4.156509E-02
         5.276930E-02    6.600439E-02    8.136006E-02    9.885619E-02    0.118429        0.139919        0.163067        0.187512        0.212799        0.238388    
         0.263679        0.288031        0.310792        0.331329        0.349055        0.363456        0.374095        0.380586        0.382407        0.378340    
         0.371672        0.359049        0.341919        0.321206        0.297745        0.272364        0.245872        0.219035        0.192545        0.167008    
         0.142923        0.120671        0.100511        8.258958E-02    6.694562E-02    5.352994E-02    4.222534E-02    3.283769E-02    2.535484E-02    1.752159E-02
  22     1.804488E-22    8.694027E-22    3.684466E-21    1.464198E-20    5.562531E-20    2.032842E-19    7.160827E-19    2.433058E-18    7.976301E-18    2.522914E-17
         7.695798E-17    2.257979E-16    6.091632E-16    2.074742E-15    6.619794E-15    2.054232E-14    6.228011E-14    1.845718E-13    5.347109E-13    1.514297E-12
         4.192191E-12    1.134522E-11    3.001478E-11    7.762857E-11    1.962872E-10    4.852568E-10    1.172983E-09    2.772612E-09    6.409232E-09    1.449072E-08
         3.204748E-08    6.933873E-08    1.467908E-07    3.041095E-07    6.166544E-07    1.224082E-06    2.379121E-06    4.528390E-06    8.442683E-06    1.542117E-05
         2.760253E-05    4.842528E-05    8.328881E-05    1.404736E-04    2.323808E-04    3.771462E-04    6.006633E-04    9.390171E-04    1.441278E-03    2.172530E-03
         3.216919E-03    4.680415E-03    6.692870E-03    9.408895E-03    1.300702E-02    1.768660E-02    2.366209E-02    3.115435E-02    4.037894E-02    5.153183E-02
         6.477298E-02    8.020883E-02    9.787511E-02    0.117721        0.139598        0.163251        0.188318        0.214334        0.240747        0.266934    
         0.292229        0.315947        0.337423        0.356038        0.371244        0.382579        0.389646        0.391964        0.388532        0.382407    
         0.370410        0.353819        0.333544        0.310368        0.285075        0.258461        0.231295        0.204292        0.178082        0.153193    
         0.130040        0.108921        9.001518E-02    7.339571E-02    5.904227E-02    4.685777E-02    3.669015E-02    2.832536E-02    2.171814E-02    1.487377E-02
  23     2.508545E-22    1.213422E-21    5.170539E-21    2.067134E-20    7.900061E-20    2.903178E-19    1.027727E-18    3.506837E-18    1.153829E-17    3.660871E-17
         1.120112E-16    3.329982E-16    1.017941E-15    3.252806E-15    1.031657E-14    3.205520E-14    9.735786E-14    2.889517E-13    8.380063E-13    2.374836E-12
         6.576324E-12    1.779507E-11    4.705346E-11    1.215832E-10    3.070200E-10    7.577001E-10    1.827673E-09    4.309320E-09    9.932821E-09    2.238413E-08
         4.932503E-08    1.062955E-07    2.240521E-07    4.619988E-07    9.321075E-07    1.840368E-06    3.556652E-06    6.729215E-06    1.246711E-05    2.262253E-05
         4.021509E-05    7.005052E-05    1.195948E-04    2.001698E-04    3.285331E-04    5.288897E-04    8.353511E-04    1.294807E-03    1.970101E-03    2.943311E-03
         4.318820E-03    6.225777E-03    8.819421E-03    1.228071E-02    1.681369E-02    2.264006E-02    2.999068E-02    3.909377E-02    5.016028E-02    6.336668E-02
         7.883658E-02    9.662214E-02    0.116687        0.138893        0.162992        0.188619        0.215306        0.242484        0.269511        0.295693    
         0.320317        0.342684        0.362141        0.378110        0.390101        0.397703        0.400470        0.397600        0.391964        0.380586    
         0.364534        0.344677        0.321785        0.296624        0.269970        0.242589        0.215202        0.188454        0.162899        0.138979    
         0.117021        9.723722E-02    7.973137E-02    6.451074E-02    5.150205E-02    4.056887E-02    3.153257E-02    2.416682E-02    1.840069E-02    1.248925E-02
  24     3.479828E-22    1.690314E-21    7.244120E-21    2.914439E-20    1.120804E-19    4.142806E-19    1.474109E-18    5.052117E-18    1.668452E-17    5.309681E-17
         1.625104E-16    4.766438E-16    1.536420E-15    5.022442E-15    1.603777E-14    4.998084E-14    1.521084E-13    4.521424E-13    1.312753E-12    3.722841E-12
         1.031212E-11    2.790012E-11    7.373243E-11    1.903358E-10    4.799699E-10    1.182407E-09    2.845863E-09    6.692617E-09    1.538012E-08    3.454284E-08
         7.583150E-08    1.627417E-07    3.414876E-07    7.007335E-07    1.406411E-06    2.761452E-06    5.305386E-06    9.975708E-06    1.836176E-05    3.309245E-05
         5.841050E-05    1.009966E-04    1.711142E-04    2.841452E-04    4.625762E-04    7.384671E-04    1.156382E-03    1.776696E-03    2.679088E-03    3.965922E-03
         5.765102E-03    8.231867E-03    1.154893E-02    1.592430E-02    2.158631E-02    2.877525E-02    3.773167E-02    4.868131E-02    6.181734E-02    7.728087E-02
         9.514118E-02    0.115377        0.137863        0.162355        0.188492        0.215797        0.243690        0.271508        0.298531        0.324015    
         0.347230        0.367489        0.384180        0.396789        0.404888        0.408060        0.405682        0.400470        0.389646        0.374095    
         0.354630        0.332010        0.306993        0.280349        0.252833        0.225166        0.198003        0.171911        0.147353        0.124681    
         0.104133        8.584125E-02    6.983760E-02    5.607184E-02    4.442663E-02    3.473512E-02    2.680043E-02    2.039134E-02    1.541832E-02    1.037201E-02
  25     4.816415E-22    2.349929E-21    1.013207E-20    4.103373E-20    1.588406E-19    5.907020E-19    2.113149E-18    7.275158E-18    2.411871E-17    7.703823E-17
         2.365693E-16    6.679135E-16    2.362741E-15    7.791827E-15    2.494331E-14    7.790645E-14    2.375599E-13    7.072638E-13    2.055858E-12    5.834464E-12
         1.616599E-11    4.373205E-11    1.155057E-10    2.978713E-10    7.500655E-10    1.844355E-09    4.428952E-09    1.038752E-08    2.379721E-08    5.325984E-08
         1.164648E-07    2.488735E-07    5.197860E-07    1.061234E-06    2.118472E-06    4.135684E-06    7.897296E-06    1.475413E-05    2.697454E-05    4.827308E-05
         8.458144E-05    1.451362E-04    2.439618E-04    4.018183E-04    6.486626E-04    1.026622E-03    1.593409E-03    2.426017E-03    3.624396E-03    5.314707E-03
         7.651600E-03    1.081888E-02    1.502788E-02    2.051292E-02    2.752323E-02    3.631134E-02    4.711770E-02    6.015230E-02    7.557424E-02    9.347056E-02
         0.113836        0.136558        0.161400        0.188003        0.215885        0.244452        0.273022        0.300848        0.327157        0.351184    
         0.372208        0.389589        0.402781        0.411342        0.414875        0.412917        0.408060        0.397703        0.382579        0.363456    
         0.341077        0.316199        0.289584        0.261984        0.234117        0.206638        0.180123        0.155049        0.131785        0.110591    
         9.161927E-02    7.492635E-02    6.048245E-02    4.818854E-02    3.789273E-02    2.940673E-02    2.252351E-02    1.701351E-02    1.277536E-02    8.518113E-03
  26     6.650784E-22    3.260124E-21    1.414624E-20    5.769021E-20    2.248591E-19    8.415733E-19    3.027528E-18    1.047201E-17    3.485025E-17    1.117451E-16
         3.481451E-16    1.111516E-15    3.685656E-15    1.208801E-14    3.876993E-14    1.213843E-13    3.709090E-13    1.106098E-12    3.219062E-12    9.142522E-12
         2.533961E-11    6.853843E-11    1.809167E-10    4.660690E-10    1.171854E-09    2.875940E-09    6.889813E-09    1.611395E-08    3.679727E-08    8.205536E-08
         1.787069E-07    3.801807E-07    7.901879E-07    1.604890E-06    3.185830E-06    6.182386E-06    1.173123E-05    2.177147E-05    3.952711E-05    7.022242E-05
         1.221079E-04    2.078818E-04    3.465879E-04    5.660529E-04    9.058833E-04    1.420973E-03    2.185374E-03    3.296267E-03    4.877605E-03    7.082888E-03
         1.009640E-02    1.413214E-02    1.942981E-02    2.624712E-02    3.484825E-02    4.548829E-02    5.839430E-02    7.374384E-02    9.164249E-02    0.112102    
         0.135023        0.160179        0.187214        0.215638        0.244847        0.274138        0.302740        0.329846        0.354659        0.376423    
         0.394465        0.408211        0.417202        0.421058        0.419450        0.414875        0.404888        0.390101        0.371244        0.349055    
         0.324287        0.297698        0.270039        0.242023        0.214305        0.187463        0.161981        0.138239        0.116512        9.696955E-02
         7.968663E-02    6.465166E-02    5.178244E-02    4.094147E-02    3.195199E-02    2.461298E-02    1.871460E-02    1.403474E-02    1.046606E-02    6.917045E-03
  27     9.161215E-22    4.512941E-21    1.971406E-20    8.098551E-20    3.179472E-19    1.197999E-18    4.335218E-18    1.506814E-17    5.033299E-17    1.615294E-16
         4.969471E-16    1.671362E-15    5.665054E-15    1.871087E-14    6.022708E-14    1.890717E-13    5.790009E-13    1.729625E-12    5.040025E-12    1.432553E-11
         3.971754E-11    1.074114E-10    2.833514E-10    7.291640E-10    1.830525E-09    4.483427E-09    1.071443E-08    2.498620E-08    5.686682E-08    1.263303E-07
         2.739771E-07    5.801693E-07    1.199805E-06    2.423644E-06    4.783246E-06    9.225087E-06    1.739063E-05    3.205272E-05    5.777387E-05    1.018664E-04
         1.757449E-04    2.967630E-04    4.906114E-04    7.943189E-04    1.259830E-03    1.958039E-03    2.983027E-03    4.456105E-03    6.529089E-03    9.386129E-03
         1.324328E-02    1.834501E-02    2.495705E-02    3.335494E-02    4.380839E-02    5.656177E-02    7.181167E-02    8.968309E-02    0.110206        0.133296    
         0.158736        0.186172        0.215114        0.244942        0.274935        0.304293        0.332180        0.357761        0.380247        0.398930    
         0.413208        0.422602        0.426744        0.425420        0.421058        0.411342        0.396789        0.378110        0.356038        0.331329    
         0.304741        0.277023        0.248886        0.220982        0.193888        0.168089        0.143971        0.121818        0.101811        8.403837E-02
         6.850383E-02    5.513943E-02    4.382088E-02    3.438253E-02    2.663207E-02    2.036376E-02    1.537140E-02    1.144503E-02    8.476343E-03    5.553120E-03
  28     1.258647E-21    6.232742E-21    2.741945E-20    1.135061E-19    4.490203E-19    1.703906E-18    6.204415E-18    2.167547E-17    7.272419E-17    2.343150E-16
         6.944440E-16    2.557912E-15    8.745142E-15    2.897478E-14    9.354145E-14    2.944451E-13    9.037279E-13    2.704498E-12    7.891029E-12    2.244743E-11
         6.225598E-11    1.683372E-10    4.437870E-10    1.140732E-09    2.859135E-09    6.988157E-09    1.665752E-08    3.872833E-08    8.783671E-08    1.943649E-07
         4.196882E-07    8.844687E-07    1.819579E-06    3.654974E-06    7.170025E-06    1.373990E-05    2.572657E-05    4.707919E-05    8.422531E-05    1.473482E-04
         2.521514E-04    4.222026E-04    6.919191E-04    1.110195E-03    1.744573E-03    2.685740E-03    4.051951E-03    5.992820E-03    8.691768E-03    1.236626E-02
         1.726499E-02    2.366117E-02    3.184144E-02    4.209013E-02    5.466923E-02    6.979503E-02    8.761282E-02    0.108172        0.131403        0.157102    
         0.184919        0.214359        0.244791        0.275473        0.305579        0.334238        0.360581        0.383780        0.403092        0.417887    
         0.427664        0.432061        0.430960        0.426744        0.417202        0.402781        0.384180        0.362141        0.337423        0.310792    
         0.282994        0.254741        0.226680        0.199387        0.173343        0.148936        0.126452        0.106080        8.791536E-02    7.197342E-02
         5.819741E-02    4.647429E-02    3.664858E-02    2.853648E-02    2.193876E-02    1.665193E-02    1.247881E-02    9.225086E-03    6.785625E-03    4.406920E-03
  29     1.724486E-21    8.586862E-21    3.805738E-20    1.588160E-19    6.332963E-19    2.421236E-18    8.874606E-18    3.116675E-17    1.050448E-16    3.438015E-16
         1.149457E-15    3.966460E-15    1.349733E-14    4.484213E-14    1.452337E-13    4.584611E-13    1.410462E-12    4.228816E-12    1.235535E-11    3.517686E-11
         9.759329E-11    2.638438E-10    6.951034E-10    1.784629E-09    4.465511E-09    1.089071E-08    2.589098E-08    6.000697E-08    1.356056E-07    2.988449E-07
         6.423665E-07    1.347017E-06    2.756177E-06    5.504052E-06    1.073008E-05    2.042571E-05    3.797697E-05    6.898451E-05    1.224603E-04    2.125100E-04
         3.606087E-04    5.985509E-04    9.721029E-04    1.545293E-03    2.405139E-03    3.666446E-03    5.476124E-03    8.016266E-03    1.150512E-02    1.619496E-02
         2.236602E-02    3.031576E-02    4.034309E-02    5.272800E-02    6.770715E-02    8.544720E-02    0.106018        0.129368        0.155305        0.183485    
         0.213410        0.244438        0.275805        0.306658        0.336091        0.363196        0.387108        0.407047        0.422351        0.432497    
         0.437124        0.436192        0.432061        0.422602        0.408211        0.389589        0.367489        0.342684        0.315947        0.288031    
         0.259645        0.231438        0.203977        0.177741        0.153114        0.130382        0.109733        9.126792E-02    7.500786E-02    6.090393E-02
         4.885175E-02    3.870445E-02    3.028603E-02    2.340370E-02    1.785887E-02    1.345613E-02    1.001146E-02    7.348598E-03    5.368682E-03    3.456663E-03
  30     2.355838E-21    1.179943E-20    5.270611E-20    2.218108E-19    8.919368E-19    3.437171E-18    1.268717E-17    4.479386E-17    1.511425E-16    4.888775E-16
         1.719735E-15    6.062439E-15    2.078492E-14    6.935794E-14    2.254285E-13    7.137359E-13    2.201227E-12    6.612474E-12    1.934700E-11    5.513149E-11
         1.530090E-10    4.135886E-10    1.088847E-09    2.792118E-09    6.974279E-09    1.697082E-08    4.023395E-08    9.294495E-08    2.092509E-07    4.591886E-07
         9.823772E-07    2.049358E-06    4.169711E-06    8.276479E-06    1.603047E-05    3.030560E-05    5.593667E-05    1.008309E-04    1.775597E-04    3.055512E-04
         5.139860E-04    8.454514E-04    1.360321E-03    2.141693E-03    3.300553E-03    4.980603E-03    7.362008E-03    1.066313E-02    1.513922E-02    2.107698E-02
         2.878434E-02    3.857485E-02    5.074679E-02    6.555799E-02    8.319763E-02    0.103757        0.127205        0.153362        0.181891        0.212293    
         0.243914        0.275970        0.307575        0.337791        0.365669        0.390302        0.410872        0.426685        0.437192        0.442030    
         0.441221        0.437124        0.427664        0.413208        0.394465        0.372208        0.347230        0.320317        0.292229        0.263679    
         0.235314        0.207699        0.181306        0.156511        0.133596        0.112747        9.406443E-02    7.756955E-02    6.321843E-02    5.091233E-02
         4.051089E-02    3.184463E-02    2.472678E-02    1.896368E-02    1.436365E-02    1.074388E-02    7.936393E-03    5.784397E-03    4.197419E-03    2.679445E-03
  31     3.208335E-21    1.616916E-20    7.282225E-20    3.091931E-19    1.254281E-18    4.874094E-18    1.812884E-17    6.442077E-17    2.182400E-16    6.804785E-16
         2.615011E-15    9.299531E-15    3.201279E-14    1.072446E-13    3.498199E-13    1.111007E-12    3.435238E-12    1.034030E-11    3.029852E-11    8.641866E-11
         2.399304E-10    6.484231E-10    1.705847E-09    4.368705E-09    1.089253E-08    2.644296E-08    6.250977E-08    1.439138E-07    3.227326E-07    7.050946E-07
         1.501074E-06    3.114594E-06    6.300093E-06    1.242647E-05    2.390667E-05    4.487282E-05    8.219926E-05    1.469961E-04    2.567053E-04    4.379225E-04
         7.300274E-04    1.189625E-03    1.895672E-03    2.954972E-03    4.507525E-03    6.730963E-03    9.843084E-03    1.410140E-02    1.979853E-02    2.725253E-02
         3.679148E-02    4.873238E-02    6.335500E-02    8.087225E-02    0.101399        0.124925        0.151286        0.180154        0.211027        0.243243    
         0.275994        0.308365        0.339379        0.368046        0.393417        0.414631        0.430959        0.441827        0.446863        0.446138    
         0.442030        0.432497        0.417887        0.398930        0.376423        0.351184        0.324015        0.295693        0.266934        0.238388    
         0.210615        0.184080        0.159154        0.136108        0.115122        9.629160E-02    7.963684E-02    6.511368E-02    5.262581E-02    4.203686E-02
         3.318224E-02    2.588020E-02    1.994177E-02    1.517915E-02    1.141246E-02    8.474666E-03    6.215672E-03    4.498523E-03    3.242456E-03    2.052297E-03
  32     4.354822E-21    2.209203E-20    1.003650E-19    4.301076E-19    1.760881E-18    6.903120E-18    2.588484E-17    9.264970E-17    3.188729E-16    1.117508E-15
         4.023059E-15    1.425708E-14    4.926770E-14    1.657496E-13    5.427060E-13    1.729188E-12    5.360964E-12    1.617086E-11    4.745563E-11    1.354848E-10
         3.763014E-10    1.016780E-09    2.672870E-09    6.836167E-09    1.701241E-08    4.119852E-08    9.709894E-08    2.227555E-07    4.975046E-07    1.081940E-06
         2.291598E-06    4.728271E-06    9.506114E-06    1.862755E-05    3.558633E-05    6.630005E-05    1.204988E-04    2.137128E-04    3.700006E-04    6.255304E-04
         1.033052E-03    1.667178E-03    2.630191E-03    4.057906E-03    6.124790E-03    9.047363E-03    1.308467E-02    1.853461E-02    2.572490E-02    3.499808E-02
         4.669019E-02    6.110377E-02    7.847678E-02    9.894960E-02    0.122533        0.149083        0.178280        0.209624        0.242438        0.275896    
         0.309052        0.340886        0.370366        0.396496        0.418373        0.435229        0.446462        0.451689        0.451018        0.446863    
         0.437192        0.422351        0.403092        0.380247        0.354659        0.327157        0.298531        0.269511        0.240747        0.212799    
         0.186126        0.161087        0.137946        0.116872        9.795359E-02    8.120398E-02    6.657634E-02    5.397363E-02    4.326082E-02    3.427614E-02
         2.684161E-02    2.077225E-02    1.588404E-02    1.200027E-02    8.956340E-03    6.602986E-03    4.808717E-03    3.456039E-03    2.474475E-03    1.553049E-03
  33     5.890019E-21    3.008980E-20    1.379573E-19    5.969848E-19    2.467628E-18    9.763281E-18    3.692314E-17    1.327620E-16    4.511367E-16    1.659631E-15
         6.101406E-15    2.180422E-14    7.576316E-14    2.560574E-13    8.417247E-13    2.691000E-12    8.366147E-12    2.529121E-11    7.433940E-11    2.124501E-10
         5.903050E-10    1.594710E-09    4.188779E-09    1.069841E-08    2.657136E-08    6.418272E-08    1.507961E-07    3.446655E-07    7.665130E-07    1.658988E-06
         3.495152E-06    7.169587E-06    1.432326E-05    2.787607E-05    5.286800E-05    9.773774E-05    1.761905E-04    3.098146E-04    5.315867E-04    8.903429E-04
         1.456175E-03    2.326533E-03    3.632558E-03    5.544921E-03    8.278110E-03    1.209192E-02    1.728877E-02    2.420556E-02    3.319911E-02    4.462476E-02
         5.880870E-02    7.601526E-02    9.641184E-02    0.120034        0.146758        0.176275        0.208087        0.241508        0.275689        0.309650    
         0.342332        0.372653        0.399571        0.422135        0.439538        0.451146        0.456561        0.455921        0.451689        0.441827    
         0.426685        0.407047        0.383780        0.357761        0.329846        0.300848        0.271508        0.242484        0.214334        0.187512    
         0.162369        0.139156        0.118031        9.907011E-02    8.227999E-02    6.760660E-02    5.494913E-02    4.417123E-02    3.511184E-02    2.759511E-02
         2.143909E-02    1.646311E-02    1.249365E-02    9.368817E-03    6.941486E-03    5.081005E-03    3.674373E-03    2.622542E-03    1.865302E-03    1.160971E-03
  34     7.936047E-21    4.084530E-20    1.890920E-19    8.266544E-19    3.451284E-18    1.378775E-17    5.266733E-17    1.911419E-16    6.246327E-16    2.499996E-15
         9.278285E-15    3.333851E-14    1.164421E-13    3.953945E-13    1.305134E-12    4.187252E-12    1.305586E-11    3.955903E-11    1.164718E-10    3.332059E-10
         9.262204E-10    2.501669E-09    6.565607E-09    1.674468E-08    4.150253E-08    9.998119E-08    2.341368E-07    5.330908E-07    1.180310E-06    2.541840E-06
         5.325501E-06    1.085790E-05    2.154894E-05    4.164189E-05    7.837850E-05    1.437375E-04    2.569216E-04    4.477608E-04    7.611469E-04    1.262510E-03
         2.044168E-03    3.232124E-03    4.992605E-03    7.537277E-03    1.112582E-02    1.606438E-02    2.269840E-02    3.139869E-02    4.254016E-02    5.647341E-02
         7.349061E-02    9.378807E-02    0.117429        0.144310        0.174139        0.206419        0.240455        0.275376        0.310168        0.343729    
         0.374926        0.402665        0.425946        0.443918        0.455915        0.461520        0.460894        0.456561        0.446462        0.430959    
         0.410872        0.387108        0.360581        0.332180        0.302740        0.273022        0.243690        0.215306        0.188318        0.163067    
         0.139793        0.118640        9.967372E-02    8.288679E-02    6.821696E-02    5.555696E-02    4.476658E-02    3.568331E-02    2.813176E-02    2.193181E-02
         1.690539E-02    1.288193E-02    9.702380E-03    7.222051E-03    5.312246E-03    3.860871E-03    2.772599E-03    1.965351E-03    1.388712E-03    8.572160E-04
  35     1.064895E-20    5.524554E-20    2.583938E-19    1.141807E-18    4.816836E-18    1.943202E-17    7.502488E-17    2.791187E-16    1.013535E-15    3.802271E-15
         1.409401E-14    5.091942E-14    1.788316E-13    6.102547E-13    2.023067E-12    6.514546E-12    2.037428E-11    6.188190E-11    1.825144E-10    5.227136E-10
         1.453636E-09    3.925337E-09    1.029307E-08    2.621128E-08    6.482589E-08    1.557326E-07    3.634516E-07    8.241902E-07    1.816396E-06    3.891310E-06
         8.105749E-06    1.642186E-05    3.236779E-05    6.208732E-05    1.159412E-04    2.108490E-04    3.735632E-04    6.450326E-04    1.085915E-03    1.783131E-03
         2.857095E-03    4.468937E-03    6.826676E-03    1.018895E-02    1.486471E-02    2.120721E-02    2.960087E-02    4.044028E-02    5.410122E-02    7.090514E-02
         9.107934E-02    0.114717        0.141739        0.171869        0.204616        0.239278        0.274959        0.310611        0.345085        0.377196    
         0.405793        0.429825        0.448394        0.460797        0.466598        0.465973        0.461520        0.451146        0.435229        0.414631    
         0.390302        0.363196        0.334238        0.304293        0.274138        0.244452        0.215797        0.188619        0.163251        0.139919    
         0.118754        9.980658E-02    8.305662E-02    6.843040E-02    5.581184E-02    4.505465E-02    3.599281E-02    2.844969E-02    2.224569E-02    1.720451E-02
         1.315801E-02    9.949873E-03    7.438022E-03    5.496035E-03    4.013662E-03    2.896558E-03    2.065746E-03    1.454352E-03    1.020967E-03    6.250770E-04
  36     1.422591E-20    7.443272E-20    3.519456E-19    1.572910E-18    6.708179E-18    2.732304E-17    1.061520E-16    3.961876E-16    1.485529E-15    5.699654E-15
         2.135209E-14    7.768549E-14    2.744440E-13    9.413827E-13    3.134916E-12    1.013382E-11    3.179468E-11    9.681108E-11    2.860568E-10    8.201916E-10
         2.281949E-09    6.160681E-09    1.613993E-08    4.103512E-08    1.012594E-07    2.425479E-07    5.640435E-07    1.273688E-06    2.793469E-06    5.951974E-06
         1.232344E-05    2.480187E-05    4.853512E-05    9.238337E-05    1.711010E-04    3.084576E-04    5.414923E-04    9.260175E-04    1.543328E-03    2.507816E-03
         3.974867E-03    6.147996E-03    9.283803E-03    1.369302E-02    1.973583E-02    2.780975E-02    3.832904E-02    5.169537E-02    6.826093E-02    8.828618E-02
         0.111896        0.139041        0.169461        0.202675        0.237971        0.274433        0.310976        0.346402        0.379469        0.408968    
         0.433789        0.452985        0.465815        0.471819        0.471186        0.466598        0.455915        0.439538        0.418373        0.393417    
         0.365669        0.336091        0.305579        0.274935        0.244847        0.215885        0.188492        0.162992        0.139598        0.118429    
         9.951701E-02    8.282913E-02    6.827799E-02    5.573680E-02    4.505127E-02    3.605006E-02    2.855369E-02    2.238180E-02    1.735886E-02    1.331860E-02
         1.010710E-02    7.584888E-03    5.628024E-03    4.128409E-03    2.993459E-03    2.145237E-03    1.519461E-03    1.062549E-03    7.411192E-04    4.500831E-04
  37     1.891315E-20    9.986337E-20    4.776844E-19    2.160591E-18    9.322845E-18    3.838804E-17    1.501260E-16    5.553331E-16    2.194183E-15    8.559757E-15
         3.232773E-14    1.184081E-13    4.208431E-13    1.451369E-12    4.856125E-12    1.576122E-11    4.961573E-11    1.514715E-10    4.484247E-10    1.287278E-09
         3.583200E-09    9.671423E-09    2.531334E-08    6.425122E-08    1.581735E-07    3.777178E-07    8.751003E-07    1.967402E-06    4.293134E-06    9.095265E-06
         1.871290E-05    3.740144E-05    7.264460E-05    1.371648E-04    2.518670E-04    4.499483E-04    7.823424E-04    1.324528E-03    2.184480E-03    3.511197E-03
         5.502807E-03    8.412806E-03    1.255258E-02    1.828822E-02    2.602962E-02    3.621059E-02    4.925931E-02    6.556013E-02    8.540892E-02    0.108966    
         0.136212        0.166910        0.200588        0.236529        0.273794        0.311261        0.347679        0.381748        0.412195        0.437848    
         0.457706        0.470985        0.477202        0.476555        0.471819        0.460797        0.443918        0.422135        0.396496        0.368046    
         0.337791        0.306658        0.275473        0.244942        0.215638        0.188003        0.162355        0.138893        0.117721        9.885619E-02
         8.224840E-02    6.779636E-02    5.536110E-02    4.477874E-02    3.587110E-02    2.845447E-02    2.234647E-02    1.737142E-02    1.336420E-02    1.017292E-02
         7.660530E-03    5.705617E-03    4.202451E-03    3.060492E-03    2.203478E-03    1.568191E-03    1.103218E-03    7.663311E-04    5.311052E-04    3.199702E-04
  38     2.501355E-20    1.333742E-19    6.458764E-19    2.958413E-18    1.292426E-17    5.390033E-17    2.132335E-16    7.613381E-16    3.259333E-15    1.284842E-14
         4.887694E-14    1.802657E-13    6.447732E-13    2.236272E-12    7.519495E-12    2.450903E-11    7.742377E-11    2.370185E-10    7.030922E-10    2.020879E-09
         5.628037E-09    1.518684E-08    3.970930E-08    1.006160E-07    2.470825E-07    5.881435E-07    1.357285E-06    3.037386E-06    6.592928E-06    1.388441E-05
         2.837798E-05    5.631006E-05    1.085169E-04    2.031809E-04    3.697582E-04    6.543148E-04    1.126371E-03    1.887126E-03    3.078570E-03    4.892549E-03
         7.578322E-03    1.144668E-02    1.686843E-02    2.426500E-02    3.408940E-02    4.679680E-02    6.280511E-02    8.244796E-02    0.105924        0.133248    
         0.164210        0.198348        0.234943        0.273034        0.311458        0.348914        0.384035        0.415479        0.442011        0.462568    
         0.476323        0.482765        0.482100        0.477202        0.465815        0.448394        0.425946        0.399571        0.370366        0.339379    
         0.307575        0.275805        0.244791        0.215114        0.187214        0.161400        0.137863        0.116687        9.787511E-02    8.136006E-02
         6.702510E-02    5.471796E-02    4.426396E-02    3.547688E-02    2.816756E-02    2.215060E-02    1.724927E-02    1.329892E-02    1.014919E-02    7.665247E-03
         5.728116E-03    4.234525E-03    3.096182E-03    2.238750E-03    1.600587E-03    1.131327E-03    7.905492E-04    5.455196E-04    3.756895E-04    2.245564E-04
  39     3.289335E-20    1.772520E-19    8.697023E-19    4.036726E-18    1.785861E-17    7.551473E-17    3.072742E-16    1.213462E-15    4.879272E-15    1.925140E-14
         7.377324E-14    2.740891E-13    9.869258E-13    3.443380E-12    1.163878E-11    3.810424E-11    1.208135E-10    3.709192E-10    1.102616E-09    3.173397E-09
         8.842390E-09    2.385424E-08    6.230663E-08    1.575845E-07    3.859740E-07    9.156682E-07    2.104456E-06    4.686675E-06    1.011647E-05    2.117205E-05
         4.297436E-05    8.463007E-05    1.617618E-04    3.002212E-04    5.412631E-04    9.483611E-04    1.615628E-03    2.677457E-03    4.318510E-03    6.782626E-03
         1.037864E-02    1.548072E-02    2.252071E-02    3.197035E-02    4.431208E-02    5.999871E-02    7.940402E-02    0.102768        0.130144        0.161351    
         0.195944        0.233202        0.272142        0.311561        0.350101        0.386327        0.418825        0.446285        0.467584        0.481842    
         0.488522        0.487835        0.482765        0.470985        0.452985        0.429825        0.402665        0.372653        0.340886        0.308365    
         0.275970        0.244438        0.214359        0.186172        0.160179        0.136558        0.115377        9.662214E-02    8.020883E-02    6.600439E-02
         5.384240E-02    4.353653E-02    3.489158E-02    2.771206E-02    2.180869E-02    1.700290E-02    1.312993E-02    1.004049E-02    7.601624E-03    5.696683E-03
         4.224836E-03    3.100144E-03    2.250380E-03    1.615686E-03    1.147145E-03    8.053358E-04    5.590213E-04    3.832382E-04    2.622851E-04    1.555545E-04
  40     4.298553E-20    2.342985E-19    1.165932E-18    5.488174E-18    2.458294E-17    1.048804E-16    4.296994E-16    1.751330E-15    7.199963E-15    2.874726E-14
         1.111464E-13    4.161785E-13    1.509108E-12    5.298268E-12    1.800649E-11    5.922723E-11    1.885119E-10    5.805269E-10    1.729532E-09    4.984598E-09
         1.389682E-08    3.747926E-08    9.778671E-08    2.468443E-07    6.029472E-07    1.425358E-06    3.261745E-06    7.227136E-06    1.550948E-05    3.224653E-05
         6.497958E-05    1.269539E-04    2.405857E-04    4.424234E-04    7.898630E-04    1.369683E-03    2.308134E-03    3.781804E-03    6.027879E-03    9.351759E-03
         1.412945E-02    2.080190E-02    2.985879E-02    4.180994E-02    5.714432E-02    7.627823E-02    9.949694E-02    0.126896        0.158328        0.193367    
         0.231294        0.271106        0.311559        0.351234        0.388623        0.422233        0.450676        0.472762        0.487556        0.494488    
[...]
         4.985717E-10    5.821217E-10    6.371568E-10    6.536758E-10    6.280226E-10    5.647529E-10    4.808099E-10    3.928642E-10    3.110358E-10    2.401397E-10
         1.816239E-10    1.350227E-10    9.892426E-11    7.157586E-11    5.123086E-11    3.632466E-11    2.554341E-11    1.783143E-11    1.236749E-11    8.528478E-12
         5.850857E-12    3.995339E-12    2.716892E-12    1.840559E-12    1.242618E-12    8.363148E-13    5.612598E-13    3.756898E-13    2.508732E-13    1.671543E-13
         1.111464E-13    7.377324E-14    4.887694E-14    3.232773E-14    2.135209E-14    1.409401E-14    9.278285E-15    6.101406E-15    4.023059E-15    2.615011E-15
         1.719735E-15    1.149457E-15    6.944440E-16    4.969471E-16    3.481451E-16    2.365693E-16    1.625104E-16    1.120112E-16    7.695798E-17    5.285534E-17
         3.630708E-17    2.492439E-17    1.709820E-17    1.172025E-17    8.027274E-18    5.493262E-18    3.755723E-18    2.565167E-18    1.750034E-18    1.192426E-18
         8.113597E-19    5.512340E-19    3.738897E-19    2.531535E-19    1.710839E-19    1.153924E-19    7.767010E-20    5.217354E-20    3.503120E-20    2.414985E-20
  91     1.274981E-31    1.084233E-30    9.247700E-30    7.785098E-29    6.453080E-28    5.262052E-27    4.218627E-26    3.323754E-25    2.572522E-24    1.954746E-23
         1.456412E-22    1.061842E-21    7.560084E-21    5.258399E-20    3.593429E-19    2.428390E-18    1.592564E-17    8.277522E-17    6.143150E-16    4.021205E-15
         2.207474E-14    9.710692E-14    3.422414E-13    9.887975E-13    2.408858E-12    5.079051E-12    9.476658E-12    1.593695E-11    2.450731E-11    3.484964E-11
         4.623184E-11    5.764244E-11    6.773312E-11    7.515115E-11    7.879440E-11    7.732182E-11    7.139226E-11    6.228856E-11    5.202572E-11    4.202186E-11
         3.305108E-11    2.543614E-11    1.922270E-11    1.430399E-11    1.050305E-11    7.623369E-12    5.477431E-12    3.900560E-12    2.755735E-12    1.933231E-12
         1.347684E-12    9.341774E-13    6.442423E-13    4.422433E-13    3.023056E-13    2.058557E-13    1.396868E-13    9.448853E-14    6.372100E-14    4.285220E-14
         2.874726E-14    1.925140E-14    1.284842E-14    8.559757E-15    5.699654E-15    3.802271E-15    2.499996E-15    1.659631E-15    1.117508E-15    6.804785E-16
         4.888775E-16    3.438015E-16    2.343150E-16    1.615294E-16    1.117451E-16    7.703823E-17    5.309681E-17    3.660871E-17    2.522914E-17    1.737863E-17
         1.196608E-17    8.234908E-18    5.663519E-18    3.892136E-18    2.672535E-18    1.833398E-18    1.256469E-18    8.601411E-19    5.881218E-19    4.016040E-19
         2.738500E-19    1.864495E-19    1.267343E-19    8.599300E-20    5.824033E-20    3.936726E-20    2.655601E-20    1.787793E-20    1.203055E-20    8.311487E-21
  92     2.000822E-32    1.670454E-31    1.396532E-30    1.152275E-29    9.362622E-29    7.485705E-28    5.885904E-27    4.548864E-26    3.453182E-25    2.572522E-24
         1.878209E-23    1.341783E-22    9.367317E-22    6.388211E-21    4.252021E-20    2.737633E-19    1.648155E-18    8.555025E-18    4.267758E-17    2.165916E-16
         1.179102E-15    5.231429E-15    1.903931E-14    5.757300E-14    1.479674E-13    3.305107E-13    6.544780E-13    1.168530E-12    1.907353E-12    2.878032E-12
         4.050541E-12    5.357154E-12    6.689861E-12    7.913449E-12    8.887289E-12    9.491570E-12    9.486175E-12    8.996689E-12    8.032215E-12    6.845550E-12
         5.632759E-12    4.508034E-12    3.526862E-12    2.707149E-12    2.044436E-12    1.522424E-12    1.119896E-12    8.149714E-13    5.874474E-13    4.198701E-13
         2.978324E-13    2.098347E-13    1.469337E-13    1.023225E-13    7.089187E-14    4.888687E-14    3.357086E-14    2.297337E-14    1.564863E-14    1.062549E-14
         7.199963E-15    4.879272E-15    3.259333E-15    2.194183E-15    1.485529E-15    1.013535E-15    6.246327E-16    4.511367E-16    3.188729E-16    2.182400E-16
         1.511425E-16    1.050448E-16    7.272419E-17    5.033299E-17    3.485025E-17    2.411871E-17    1.668452E-17    1.153829E-17    7.976301E-18    5.511418E-18
         3.806323E-18    2.627222E-18    1.812170E-18    1.249021E-18    8.601355E-19    5.917631E-19    4.066967E-19    2.791855E-19    1.914127E-19    1.310567E-19
         8.960098E-20    6.116241E-20    4.168013E-20    2.835318E-20    1.925132E-20    1.304565E-20    8.822343E-21    5.954224E-21    4.016772E-21    2.781717E-21
  93     3.058387E-33    2.509580E-32    2.058861E-31    1.666943E-30    1.329217E-29    1.043089E-28    8.050519E-28    6.106708E-27    4.548864E-26    3.323754E-25
         2.378885E-24    1.665036E-23    1.137572E-22    7.566519E-22    4.871361E-21    2.993140E-20    1.707555E-19    8.771139E-19    4.302203E-18    2.018451E-17
         7.781821E-17    2.835857E-16    1.057624E-15    3.316513E-15    8.937668E-15    2.102720E-14    4.394982E-14    8.288236E-14    1.429184E-13    2.277700E-13
         3.384768E-13    4.725201E-13    6.231483E-13    7.795203E-13    9.278134E-13    1.053743E-12    1.137047E-12    1.163640E-12    1.125641E-12    1.028053E-12
         8.943329E-13    7.495127E-13    6.100247E-13    4.848099E-13    3.776932E-13    2.892836E-13    2.183270E-13    1.626645E-13    1.198269E-13    8.738959E-14
         6.316651E-14    4.529418E-14    3.224516E-14    2.281045E-14    1.602591E-14    1.119790E-14    7.790216E-15    5.406569E-15    3.697926E-15    2.541131E-15
         1.751330E-15    1.213462E-15    7.613381E-16    5.553331E-16    3.961876E-16    2.791187E-16    1.911419E-16    1.327620E-16    9.264970E-17    6.442077E-17
         4.479386E-17    3.116675E-17    2.167547E-17    1.506814E-17    1.047201E-17    7.275158E-18    5.052117E-18    3.506837E-18    2.433058E-18    1.687183E-18
         1.169287E-18    8.098416E-19    5.604877E-19    3.875982E-19    2.677975E-19    1.848409E-19    1.274422E-19    8.776226E-20    6.035830E-20    4.145298E-20
         2.842621E-20    1.946174E-20    1.330148E-20    9.074670E-21    6.179223E-21    4.199238E-21    2.847788E-21    1.927328E-21    1.303777E-21    9.052812E-22
  94     4.565672E-34    3.685652E-33    2.970134E-32    2.361939E-31    1.849931E-30    1.425912E-29    1.080858E-28    8.050519E-28    5.885904E-27    4.218627E-26
         2.959270E-25    2.027437E-24    1.352742E-23    8.749835E-23    5.442016E-22    3.209395E-21    1.760697E-20    8.882027E-20    4.233390E-19    1.869487E-18
         6.899896E-18    1.997850E-17    6.792785E-17    1.877212E-16    5.320869E-16    1.316701E-15    2.891534E-15    5.714917E-15    1.036574E-14    1.738199E-14
         2.716930E-14    3.987824E-14    5.528972E-14    7.274754E-14    9.115261E-14    1.091439E-13    1.248705E-13    1.364587E-13    1.423173E-13    1.401622E-13
         1.308749E-13    1.161713E-13    9.910948E-14    8.198060E-14    6.614161E-14    5.226659E-14    4.056248E-14    3.099817E-14    2.337764E-14    1.742740E-14
         1.285855E-14    9.400399E-15    6.814814E-15    4.908155E-15    3.479320E-15    2.467061E-15    1.747736E-15    1.240527E-15    8.004923E-16    5.930770E-16
         4.296994E-16    3.072742E-16    2.132335E-16    1.501260E-16    1.061520E-16    7.502488E-17    5.266733E-17    3.692314E-17    2.588484E-17    1.812884E-17
         1.268717E-17    8.874606E-18    6.204415E-18    4.335218E-18    3.027528E-18    2.113149E-18    1.474109E-18    1.027727E-18    7.160827E-19    4.986202E-19
         3.469588E-19    2.412477E-19    1.676088E-19    1.163445E-19    8.068155E-20    5.589101E-20    3.867295E-20    2.672558E-20    1.844409E-20    1.271022E-20
         8.745198E-21    6.007076E-21    4.118986E-21    2.819092E-21    1.925662E-21    1.312697E-21    8.929566E-22    6.061611E-22    4.112711E-22    2.863790E-22
  95     6.670925E-35    5.302193E-34    4.200516E-33    3.283346E-32    2.527540E-31    1.914594E-30    1.425912E-29    1.043089E-28    7.485705E-28    5.262052E-27
         3.615943E-26    2.422552E-25    1.576388E-24    9.906196E-24    5.959719E-23    3.391241E-22    1.801495E-21    8.884196E-21    4.102767E-20    1.730225E-19
         6.233528E-19    1.900296E-18    6.103934E-18    1.675172E-17    3.811811E-17    9.117984E-17    2.017210E-16    3.788840E-16    7.267980E-16    1.285099E-15
         2.109396E-15    3.246179E-15    4.714943E-15    6.497328E-15    8.511542E-15    1.068615E-14    1.285436E-14    1.481898E-14    1.640790E-14    1.738133E-14
         1.737871E-14    1.659508E-14    1.501115E-14    1.302991E-14    1.094994E-14    8.965754E-15    7.154138E-15    5.618909E-15    4.352644E-15    3.328696E-15
         2.515783E-15    1.881256E-15    1.392991E-15    1.026647E-15    6.917623E-16    5.251026E-16    3.897138E-16    2.852275E-16    2.022203E-16    1.454028E-16
         1.048804E-16    7.551473E-17    5.390033E-17    3.838804E-17    2.732304E-17    1.943202E-17    1.378775E-17    9.763281E-18    6.903120E-18    4.874094E-18
         3.437171E-18    2.421236E-18    1.703906E-18    1.197999E-18    8.415733E-19    5.907020E-19    4.142806E-19    2.903178E-19    2.032842E-19    1.422254E-19
         9.942193E-20    6.943861E-20    4.845196E-20    3.377429E-20    2.351766E-20    1.635686E-20    1.136229E-20    7.882269E-21    5.460269E-21    3.776690E-21
         2.607954E-21    1.797781E-21    1.237028E-21    8.495468E-22    5.822649E-22    3.982374E-22    2.717810E-22    1.850817E-22    1.259707E-22    8.798113E-23
  96     9.556755E-36    7.484105E-35    5.832492E-34    4.483715E-33    3.394069E-32    2.527540E-31    1.849931E-30    1.329217E-29    9.362622E-29    6.453080E-28
         4.341816E-27    2.842656E-26    1.803060E-25    1.101163E-24    6.421438E-24    3.539791E-23    1.827181E-22    8.791381E-22    3.937620E-21    1.602922E-20
         5.689036E-20    1.778160E-19    5.520676E-19    1.509104E-18    3.570921E-18    8.404799E-18    1.821871E-17    3.057524E-17    5.563605E-17    9.895055E-17
         1.667029E-16    2.660705E-16    4.004156E-16    5.706591E-16    7.471455E-16    9.876751E-16    1.250020E-15    1.513100E-15    1.796040E-15    1.981452E-15
         2.099380E-15    2.136412E-15    2.064555E-15    1.930098E-15    1.706449E-15    1.455487E-15    1.152069E-15    9.561681E-16    7.736065E-16    6.139588E-16
         4.796794E-16    3.698128E-16    2.818037E-16    2.125717E-16    1.554474E-16    1.152372E-16    8.556979E-17    6.331019E-17    4.632009E-17    3.377304E-17
         2.458294E-17    1.785861E-17    1.292426E-17    9.322845E-18    6.708179E-18    4.816836E-18    3.451284E-18    2.467628E-18    1.760881E-18    1.254281E-18
         8.919368E-19    6.332963E-19    4.490203E-19    3.179472E-19    2.248591E-19    1.588406E-19    1.120804E-19    7.900061E-20    5.562531E-20    3.912534E-20
         2.749060E-20    1.929484E-20    1.352741E-20    9.472923E-21    6.625588E-21    4.628140E-21    3.228472E-21    2.248847E-21    1.564072E-21    1.086044E-21
         7.528197E-22    5.208907E-22    3.597274E-22    2.479316E-22    1.705231E-22    1.170284E-22    8.013526E-23    5.475136E-23    3.738641E-23    2.619618E-23
  97     1.344375E-36    1.037908E-35    7.960935E-35    6.021513E-34    4.483715E-33    3.283346E-32    2.361939E-31    1.666943E-30    1.152275E-29    7.785098E-29
         5.127016E-28    3.279508E-27    2.027901E-26    1.204778E-25    6.824729E-25    3.655380E-24    1.837303E-23    8.622512E-23    3.755023E-22    1.486874E-21
         5.220221E-21    1.649451E-20    5.014447E-20    1.367733E-19    3.315912E-19    7.751747E-19    1.668024E-18    2.998100E-18    5.425705E-18    9.636795E-18
         1.622249E-17    2.338531E-17    3.447860E-17    4.972360E-17    6.804255E-17    9.131038E-17    1.187385E-16    1.489086E-16    1.815499E-16    2.112031E-16
         2.357533E-16    2.534800E-16    2.612468E-16    2.588242E-16    2.425483E-16    2.178072E-16    1.858834E-16    1.571387E-16    1.307203E-16    1.069240E-16
         8.608530E-17    6.831967E-17    5.352360E-17    4.143668E-17    3.153548E-17    2.384359E-17    1.795415E-17    1.346263E-17    1.003132E-17    7.435223E-18
         5.488174E-18    4.036726E-18    2.958413E-18    2.160591E-18    1.572910E-18    1.141807E-18    8.266544E-19    5.969848E-19    4.301076E-19    3.091931E-19
         2.218108E-19    1.588160E-19    1.135061E-19    8.098551E-20    5.769021E-20    4.103373E-20    2.914439E-20    2.067134E-20    1.464198E-20    1.035763E-20
         7.317373E-21    5.162777E-21    3.637790E-21    2.559796E-21    1.798740E-21    1.262128E-21    8.842665E-22    6.185526E-22    4.319663E-22    3.011388E-22
         2.095510E-22    1.455394E-22    1.008791E-22    6.977712E-23    4.815926E-23    3.316392E-23    2.278459E-23    1.561814E-23    1.070076E-23    7.529911E-24
  98     1.859453E-37    1.415928E-36    1.069349E-35    7.960935E-35    5.832492E-34    4.200516E-33    2.970134E-32    2.058861E-31    1.396532E-30    9.247700E-30
         5.960563E-29    3.725362E-28    2.246974E-27    1.300217E-26    7.168856E-26    3.739211E-25    1.833008E-24    8.397015E-24    3.565729E-23    1.380812E-22
         4.804202E-22    1.523112E-21    4.568198E-21    1.244575E-20    3.064536E-20    7.153480E-20    1.539232E-19    2.891701E-19    5.275102E-19    9.386164E-19
         1.587441E-18    2.406718E-18    3.576725E-18    5.194560E-18    7.248064E-18    9.847281E-18    1.299038E-17    1.658568E-17    2.054921E-17    2.448381E-17
         2.800884E-17    3.009389E-17    3.180416E-17    3.277277E-17    3.253316E-17    3.074704E-17    2.776021E-17    2.438426E-17    2.095907E-17    1.767514E-17
         1.465190E-17    1.195827E-17    9.623104E-18    7.644057E-18    5.988432E-18    4.640883E-18    3.566775E-18    2.722422E-18    2.064198E-18    1.555575E-18
         1.165932E-18    8.697023E-19    6.458764E-19    4.776844E-19    3.519456E-19    2.583938E-19    1.890920E-19    1.379573E-19    1.003650E-19    7.282225E-20
         5.270611E-20    3.805738E-20    2.741945E-20    1.971406E-20    1.414624E-20    1.013207E-20    7.244120E-21    5.170539E-21    3.684466E-21    2.621328E-21
         1.862041E-21    1.320641E-21    9.352083E-22    6.612328E-22    4.667791E-22    3.289750E-22    2.314661E-22    1.625771E-22    1.139856E-22    7.976780E-23
         5.571325E-23    3.883362E-23    2.701098E-23    1.874651E-23    1.298115E-23    8.967786E-24    6.180318E-24    4.249643E-24    2.923634E-24    2.081929E-24
  99     2.532668E-38    1.903199E-37    1.415928E-36    1.037908E-35    7.484105E-35    5.302193E-34    3.685652E-33    2.509580E-32    1.670454E-31    1.084233E-30
         6.840824E-30    4.179390E-29    2.460903E-28    1.388832E-27    7.466269E-27    3.799343E-26    1.819057E-25    8.144593E-25    3.381578E-24    1.285497E-23
         4.435849E-23    1.405500E-22    4.177347E-22    1.137432E-21    2.829812E-21    6.615449E-21    1.429016E-20    2.767768E-20    5.115090E-20    9.149536E-20
         1.559117E-19    2.444854E-19    3.691132E-19    5.417025E-19    7.678132E-19    1.057186E-18    1.414125E-18    1.834596E-18    2.309692E-18    2.808239E-18
         3.287133E-18    3.664530E-18    3.965876E-18    4.177513E-18    4.261912E-18    4.181020E-18    3.941265E-18    3.597917E-18    3.199806E-18    2.783430E-18
         2.374808E-18    1.991540E-18    1.644398E-18    1.338666E-18    1.075019E-18    8.528217E-19    6.694743E-19    5.208087E-19    4.018938E-19    3.078727E-19
         2.342985E-19    1.772520E-19    1.333742E-19    9.986337E-20    7.443272E-20    5.524554E-20    4.084530E-20    3.008980E-20    2.209203E-20    1.616916E-20
         1.179943E-20    8.586862E-21    6.232742E-21    4.512941E-21    3.260124E-21    2.349929E-21    1.690314E-21    1.213422E-21    8.694027E-22    6.217584E-22
         4.438476E-22    3.162798E-22    2.249788E-22    1.597516E-22    1.132341E-22    8.011745E-23    5.658212E-23    3.988536E-23    2.806117E-23    1.970284E-23
         1.380553E-23    9.652661E-24    6.734083E-24    4.687213E-24    3.254790E-24    2.254617E-24    1.557933E-24    1.074419E-24    7.457076E-25    5.707584E-25
 100     3.409516E-39    2.532668E-38    1.859453E-37    1.344375E-36    9.556755E-36    6.670925E-35    4.565672E-34    3.058387E-33    2.000822E-32    1.274981E-31
         7.888298E-31    4.720291E-30    2.719475E-29    1.500666E-28    7.887375E-28    3.925906E-27    1.840048E-26    8.070803E-26    3.286501E-25    1.230347E-24
         4.213581E-24    1.331783E-23    3.933449E-23    1.070740E-22    2.682825E-22    6.290355E-22    1.366446E-21    2.705215E-21    5.069063E-21    9.134797E-21
         1.570169E-20    2.521523E-20    3.871664E-20    5.750975E-20    8.262869E-20    1.152234E-19    1.561098E-19    2.053722E-19    2.623272E-19    3.244118E-19
         3.872452E-19    4.434891E-19    4.911851E-19    5.283280E-19    5.513512E-19    5.560976E-19    5.412265E-19    5.099006E-19    4.669868E-19    4.173267E-19
         3.650285E-19    3.132702E-19    2.643098E-19    2.195855E-19    1.798319E-19    1.453511E-19    1.161003E-19    9.176590E-20    7.185332E-20    5.578809E-20
         4.298553E-20    3.289335E-20    2.501355E-20    1.891315E-20    1.422591E-20    1.064895E-20    7.936047E-21    5.890019E-21    4.354822E-21    3.208335E-21
         2.355838E-21    1.724486E-21    1.258647E-21    9.161215E-22    6.650784E-22    4.816415E-22    3.479828E-22    2.508545E-22    1.804488E-22    1.295353E-22
         9.280021E-23    6.635240E-23    4.735030E-23    3.372518E-23    2.397453E-23    1.701005E-23    1.204504E-23    8.512222E-24    6.003279E-24    4.224957E-24
         2.966994E-24    2.078950E-24    1.453362E-24    1.013622E-24    7.052115E-25    4.894143E-25    3.388101E-25    2.343727E-25    1.678955E-25    2.098487E-25

 CONCENTRATION WILL BE SAVED ON UNIT 1028 AT END OF TIME STEP  100, STRESS PERIOD    1


  MASS BUDGET FOR ENTIRE MODEL AT END OF TIME STEP  100, STRESS PERIOD   1
  ---------------------------------------------------------------------------------------------------

     CUMULATIVE MASS      M       RATES FOR THIS TIME STEP      M/T          PACKAGE NAME    
     ------------------                 ------------------------                     ----------------

           IN:                                      IN:
           ---                                      ---
     STORAGE-AQUEOUS =           0.2365       STORAGE-AQUEOUS =       1.0727E-09     MST                              
                 WEL =       10000.0000                   WEL =          10.0000     SSM_WEL-1                        
                 CHD =           0.0000                   CHD =           0.0000     SSM_CHD-1                        

            TOTAL IN =       10000.2365              TOTAL IN =          10.0000

          OUT:                                     OUT:
          ----                                     ----
     STORAGE-AQUEOUS =        9869.4100       STORAGE-AQUEOUS =           8.0473     MST                              
                 WEL =           0.0000                   WEL =           0.0000     SSM_WEL-1                        
                 CHD =         130.8265                   CHD =           1.9527     SSM_CHD-1                        

           TOTAL OUT =       10000.2365             TOTAL OUT =          10.0000

            IN - OUT =      -9.1464E-08              IN - OUT =      -1.2744E-09

 PERCENT DISCREPANCY =          -0.00     PERCENT DISCREPANCY =          -0.00




         TIME SUMMARY AT END OF TIME STEP  100 IN STRESS PERIOD    1
                    SECONDS     MINUTES      HOURS       DAYS        YEARS
                    -----------------------------------------------------------
   TIME STEP LENGTH 8.64000E+05  14400.      240.00      10.000     2.73785E-02
 STRESS PERIOD TIME 8.64000E+07 1.44000E+06  24000.      1000.0      2.7379    
         TOTAL TIME 8.64000E+07 1.44000E+06  24000.      1000.0      2.7379    


end timestep

