                                   MODFLOW 6
                U.S. GEOLOGICAL SURVEY MODULAR HYDROLOGIC MODEL
                          GROUNDWATER FLOW MODEL (GWF)
                   VERSION 6.3.0 release candidate 07/30/2021
                               ***DEVELOP MODE***

   MODFLOW 6 compiled Oct 27 2021 07:53:31 with IFORT compiler (ver. 20.21.1)

This software is preliminary or provisional and is subject to 
revision. It is being provided to meet the need for timely best 
science. The software has not received final approval by the U.S. 
Geological Survey (USGS). No warranty, expressed or implied, is made 
by the USGS or the U.S. Government as to the functionality of the 
software and related material nor shall the fact of release 
constitute any such warranty. The software is provided on the 
condition that neither the USGS nor the U.S. Government shall be held 
liable for any damages resulting from the authorized or unauthorized 
use of the software.


System command used to initiate simulation:
E:\15_REPOS\00_BETAMI\bin\mf6.exe

MODFLOW was compiled using uniform precision.

Real Variables
  KIND: 8
  TINY (smallest non-zero value):    2.225074-308
  HUGE (largest value):    1.797693+308
  PRECISION: 15
  BIT SIZE: 64

Integer Variables
  KIND: 4
  HUGE (largest value): 2147483647
  BIT SIZE: 32

Long Integer Variables
  KIND: 8
  HUGE (largest value): 9223372036854775807
  BIT SIZE: 64

Logical Variables
  KIND: 4
  BIT SIZE: 32
 

 OPENED inner.dis
 FILE TYPE:DIS6                   UNIT 1013   STATUS:OLD                 
 FORMAT:FORMATTED              ACCESS:SEQUENTIAL          
 ACTION:READ                


 OPENED inner.ic
 FILE TYPE:IC6                    UNIT 1014   STATUS:OLD                 
 FORMAT:FORMATTED              ACCESS:SEQUENTIAL          
 ACTION:READ                


 OPENED inner.npf
 FILE TYPE:NPF6                   UNIT 1015   STATUS:OLD                 
 FORMAT:FORMATTED              ACCESS:SEQUENTIAL          
 ACTION:READ                


 OPENED inner.oc
 FILE TYPE:OC6                    UNIT 1016   STATUS:OLD                 
 FORMAT:FORMATTED              ACCESS:SEQUENTIAL          
 ACTION:READ                

 NAMEFILE OPTIONS:
    FLOWS WILL BE SAVED TO BUDGET FILE SPECIFIED IN OUTPUT CONTROL

 DIS -- STRUCTURED GRID DISCRETIZATION PACKAGE, VERSION 2 : 3/27/2014 - INPUT READ FROM UNIT 1013


 # File generated by Flopy version 3.9.1 on 06/21/2025 at 10:35:07.
 PROCESSING DISCRETIZATION OPTIONS
    MODEL LENGTH UNIT IS METERS
    XORIGIN SPECIFIED AS     200.000000000000    
    YORIGIN SPECIFIED AS     200.000000000000    
 END OF DISCRETIZATION OPTIONS
 PROCESSING DISCRETIZATION DIMENSIONS
    NLAY =       1
    NROW =       9
    NCOL =       9
 END OF DISCRETIZATION DIMENSIONS
 PROCESSING GRIDDATA

                     DELR =   33.33333    

                     DELC =   33.33333    

 TOP ELEVATION OF LAYER 1 =   0.000000    

   MODEL LAYER BOTTOM EL. =  -100.0000    
 END PROCESSING GRIDDATA

 NPF -- NODE PROPERTY FLOW PACKAGE, VERSION 1, 3/30/2015 INPUT READ FROM UNIT 1015


 # File generated by Flopy version 3.9.1 on 06/21/2025 at 10:35:07.
 PROCESSING NPF OPTIONS
    CELL-BY-CELL FLOW INFORMATION WILL BE SAVED TO BINARY FILE WHENEVER ICBCFL IS NOT ZERO.
    SPECIFIC DISCHARGE WILL BE CALCULATED AT CELL CENTERS AND WRITTEN TO DATA-SPDIS IN BUDGET FILE WHEN REQUESTED.
 END OF NPF OPTIONS

 IC -- INITIAL CONDITIONS PACKAGE, VERSION 8, 3/28/2015 INPUT READ FROM UNIT 1014
 # File generated by Flopy version 3.9.1 on 06/21/2025 at 10:35:07.
 PROCESSING IC OPTIONS
 END OF IC OPTIONS
 PROCESSING GRIDDATA

     INITIAL HEAD =   0.000000    
 END PROCESSING GRIDDATA
 PROCESSING GRIDDATA

                ICELLTYPE = 0

                        K =   1.000000    
 K33 not provided.  Assuming K33 = K.
 K22 not provided.  Assuming K22 = K.
 END PROCESSING GRIDDATA
    BINARY GRID INFORMATION WILL BE WRITTEN TO:
      UNIT NUMBER: 1022
      FILE NAME: e:\15_REPOS\00_BETAMI\00_MF6\07_ex-gwf-u1gwfgwf\ex-gwf-u1gwfgwf-s1\inner.dis.grb

 OPENED e:\15_REPOS\00_BETAMI\00_MF6\07_ex-gwf-u1gwfgwf\ex-gwf-u1gwfgwf-s1\inner.dis.grb
 FILE TYPE:DATA(BINARY)   UNIT 1022   STATUS:REPLACE             
 FORMAT:UNFORMATTED            ACCESS:STREAM              
 ACTION:READWRITE           

      THE LAST TIME STEP WILL BE PRINTED
      THE LAST TIME STEP WILL BE PRINTED
 # File generated by Flopy version 3.9.1 on 06/21/2025 at 10:35:07.

 PROCESSING OC OPTIONS

    BUDGET INFORMATION WILL BE WRITTEN TO:
      UNIT NUMBER: 1023
      FILE NAME: inner.cbc

 OPENED inner.cbc
 FILE TYPE:DATA(BINARY)   UNIT 1023   STATUS:REPLACE             
 FORMAT:UNFORMATTED            ACCESS:STREAM              
 ACTION:READWRITE           

    HEAD INFORMATION WILL BE WRITTEN TO:
      UNIT NUMBER: 1024
      FILE NAME: inner.hds

 OPENED inner.hds
 FILE TYPE:DATA(BINARY)   UNIT 1024   STATUS:REPLACE             
 FORMAT:UNFORMATTED            ACCESS:STREAM              
 ACTION:READWRITE           

 END OF OC OPTIONS

start timestep kper="1" kstp="1" mode="normal"


 BEGIN READING OUTPUT CONTROL FOR STRESS PERIOD 1
      ALL TIME STEPS WILL BE SAVED
      ALL TIME STEPS WILL BE SAVED

 END READING OUTPUT CONTROL FOR STRESS PERIOD 1
 UBDSV1 SAVING     FLOW-JA-FACE ON UNIT   1023 AT TIME STEP      1, STRESS PERIOD      1
 UBDSV06 SAVING       DATA-SPDIS IN MODEL INNER            PACKAGE NPF             CONNECTED TO MODEL INNER            PACKAGE NPF              ON UNIT   1023 AT TIME STEP      1, STRESS PERIOD      1

 HEAD WILL BE SAVED ON UNIT 1024 AT END OF TIME STEP    1, STRESS PERIOD    1


  VOLUME BUDGET FOR ENTIRE MODEL AT END OF TIME STEP    1, STRESS PERIOD   1
  ---------------------------------------------------------------------------------------------------

     CUMULATIVE VOLUME      L**3       RATES FOR THIS TIME STEP      L**3/T          PACKAGE NAME    
     ------------------                 ------------------------                     ----------------

           IN:                                      IN:
           ---                                      ---
        FLOW-JA-FACE =          65.7796          FLOW-JA-FACE =          65.7796     GWF-GWF_1       

            TOTAL IN =          65.7796              TOTAL IN =          65.7796

          OUT:                                     OUT:
          ----                                     ----
        FLOW-JA-FACE =          65.7796          FLOW-JA-FACE =          65.7796     GWF-GWF_1       

           TOTAL OUT =          65.7796             TOTAL OUT =          65.7796

            IN - OUT =       7.3256E-10              IN - OUT =       7.3256E-10

 PERCENT DISCREPANCY =           0.00     PERCENT DISCREPANCY =           0.00




         TIME SUMMARY AT END OF TIME STEP    1 IN STRESS PERIOD    1
                    SECONDS     MINUTES      HOURS       DAYS        YEARS
                    -----------------------------------------------------------
   TIME STEP LENGTH  86400.      1440.0      24.000      1.0000     2.73785E-03
 STRESS PERIOD TIME  86400.      1440.0      24.000      1.0000     2.73785E-03
         TOTAL TIME  86400.      1440.0      24.000      1.0000     2.73785E-03


end timestep

 UBDSV06 SAVING     FLOW-JA-FACE IN MODEL INNER            PACKAGE GWF-GWF_1       CONNECTED TO MODEL OUTER            PACKAGE GWF-GWF_1        ON UNIT   1023 AT TIME STEP      1, STRESS PERIOD      1

 EXG GWF-GWF_1   PERIOD      1   STEP        1
 --------------------------------------------------------------------
   NUMBER   CELLID                    RATE       NAME                
 --------------------------------------------------------------------
     1      (1,1,1)               6.0649539      LEFT                
     2      (1,2,1)               5.7101153      LEFT                
     3      (1,3,1)               5.5838326      LEFT                
     4      (1,4,1)               5.5819773      LEFT                
     5      (1,5,1)               5.5681164      LEFT                
     6      (1,6,1)               5.5819773      LEFT                
     7      (1,7,1)               5.5838326      LEFT                
     8      (1,8,1)               5.7101153      LEFT                
     9      (1,9,1)               6.0649539      LEFT                
     10     (1,9,1)              -2.1888144      BOTTOM              
     11     (1,9,2)               0.10409409     BOTTOM              
     12     (1,9,3)               2.4702951      BOTTOM              
     13     (1,9,4)              -2.4016432      BOTTOM              
     14     (1,9,5)               3.24573701E-11 BOTTOM              
     15     (1,9,6)               2.4016432      BOTTOM              
     16     (1,9,7)              -2.4702951      BOTTOM              
     17     (1,9,8)              -0.10409409     BOTTOM              
     18     (1,9,9)               2.1888144      BOTTOM              
     19     (1,1,9)              -6.0649539      RIGHT               
     20     (1,2,9)              -5.7101153      RIGHT               
     21     (1,3,9)              -5.5838326      RIGHT               
     22     (1,4,9)              -5.5819773      RIGHT               
     23     (1,5,9)              -5.5681164      RIGHT               
     24     (1,6,9)              -5.5819773      RIGHT               
     25     (1,7,9)              -5.5838326      RIGHT               
     26     (1,8,9)              -5.7101153      RIGHT               
     27     (1,9,9)              -6.0649539      RIGHT               
     28     (1,1,1)              -2.1888144      TOP                 
     29     (1,1,2)               0.10409409     TOP                 
     30     (1,1,3)               2.4702951      TOP                 
     31     (1,1,4)              -2.4016432      TOP                 
     32     (1,1,5)               2.92710300E-11 TOP                 
     33     (1,1,6)               2.4016432      TOP                 
     34     (1,1,7)              -2.4702951      TOP                 
     35     (1,1,8)              -0.10409409     TOP                 
     36     (1,1,9)               2.1888144      TOP                 
 --------------------------------------------------------------------


