                                   MODFLOW 6
                U.S. GEOLOGICAL SURVEY MODULAR HYDROLOGIC MODEL
                   VERSION 6.3.0 release candidate 07/30/2021
                               ***DEVELOP MODE***

   MODFLOW 6 compiled Oct 27 2021 07:53:31 with IFORT compiler (ver. 20.21.1)

This software is preliminary or provisional and is subject to 
revision. It is being provided to meet the need for timely best 
science. The software has not received final approval by the U.S. 
Geological Survey (USGS). No warranty, expressed or implied, is made 
by the USGS or the U.S. Government as to the functionality of the 
software and related material nor shall the fact of release 
constitute any such warranty. The software is provided on the 
condition that neither the USGS nor the U.S. Government shall be held 
liable for any damages resulting from the authorized or unauthorized 
use of the software.


System command used to initiate simulation:
E:\15_REPOS\00_BETAMI\bin\mf6.exe

MODFLOW was compiled using uniform precision.

Real Variables
  KIND: 8
  TINY (smallest non-zero value):    2.225074-308
  HUGE (largest value):    1.797693+308
  PRECISION: 15
  BIT SIZE: 64

Integer Variables
  KIND: 4
  HUGE (largest value): 2147483647
  BIT SIZE: 32

Long Integer Variables
  KIND: 8
  HUGE (largest value): 9223372036854775807
  BIT SIZE: 64

Logical Variables
  KIND: 4
  BIT SIZE: 32
 

 OPENED mfsim.nam
 FILE TYPE:NAM   UNIT 1001   STATUS:OLD                 
 FORMAT:FORMATTED              ACCESS:SEQUENTIAL          
 ACTION:READ                

 # File generated by Flopy version 3.9.1 on 06/21/2025 at 10:35:07.

 READING SIMULATION OPTIONS
 END OF SIMULATION OPTIONS

 READING SIMULATION TIMING

 OPENED ex-gwf-u1gwfgwf-s1.tdis
 FILE TYPE:TDIS   UNIT 1002   STATUS:OLD                 
 FORMAT:FORMATTED              ACCESS:SEQUENTIAL          
 ACTION:READ                


 TDIS -- TEMPORAL DISCRETIZATION PACKAGE,
 VERSION 1 : 11/13/2014 - INPUT READ FROM UNIT 1002
 # File generated by Flopy version 3.9.1 on 06/21/2025 at 10:35:07.
 PROCESSING TDIS OPTIONS
    SIMULATION TIME UNIT IS DAYS
 END OF TDIS OPTIONS
 PROCESSING TDIS DIMENSIONS
    1 STRESS PERIOD(S) IN SIMULATION
 END OF TDIS DIMENSIONS
 PROCESSING TDIS PERIODDATA


 STRESS PERIOD     LENGTH       TIME STEPS     MULTIPLIER FOR DELT
 ----------------------------------------------------------------------------
        1         1.000000          1                    1.000
 END OF TDIS PERIODDATA
 END OF SIMULATION TIMING

 READING SIMULATION MODELS
    GWF6 model OUTER will be created as model 1
    GWF6 model INNER will be created as model 2
 END OF SIMULATION MODELS

 READING SIMULATION EXCHANGES
    GWF6-GWF6 exchange 1 will be created to connect model 1 with model 2
 END OF SIMULATION EXCHANGES

 READING SOLUTIONGROUP

 Creating solution: SLN_1           

 OPENED ex-gwf-u1gwfgwf-s1.ims
 FILE TYPE:IMS   UNIT 1017   STATUS:OLD                 
 FORMAT:FORMATTED              ACCESS:SEQUENTIAL          
 ACTION:READ                

 END OF SIMULATION SOLUTIONGROUP

 Creating exchange: GWF-GWF_1       

 OPENED ex-gwf-u1gwfgwf-s1.gwfgwf
 FILE TYPE:GWF-GWF   UNIT 1018   STATUS:OLD                 
 FORMAT:FORMATTED              ACCESS:SEQUENTIAL          
 ACTION:READ                

 # File generated by Flopy version 3.9.1 on 06/21/2025 at 10:35:07.
 PROCESSING GWF EXCHANGE OPTIONS
    AUXILIARY GWF_GWF_Exchange VARIABLE: ANGLDEGX        
    AUXILIARY GWF_GWF_Exchange VARIABLE: CDIST           
    EXCHANGE BOUNDARIES HAVE NAMES IN LAST COLUMN.
    THE LIST OF EXCHANGES WILL BE PRINTED.
    EXCHANGE FLOWS WILL BE PRINTED TO LIST FILES.
    EXCHANGE FLOWS WILL BE SAVED TO BINARY BUDGET FILES.
 END OF GWF EXCHANGE OPTIONS
 PROCESSING EXCHANGE DIMENSIONS
    NEXG = 36
 END OF EXCHANGE DIMENSIONS
 PROCESSING EXCHANGEDATA
         NODEM1    NODEM2       IHC             CL1             CL2            HWVA        ANGLDEGX           CDIST BOUNDNAME      
     (1,3,2) (1,1,1)         1     50.0000         16.6667         33.3333         0.00000         74.5356     LEFT
     (1,3,2) (1,2,1)         1     50.0000         16.6667         33.3333         0.00000         66.6667     LEFT
     (1,3,2) (1,3,1)         1     50.0000         16.6667         33.3333         0.00000         74.5356     LEFT
     (1,4,2) (1,4,1)         1     50.0000         16.6667         33.3333         0.00000         74.5356     LEFT
     (1,4,2) (1,5,1)         1     50.0000         16.6667         33.3333         0.00000         66.6667     LEFT
     (1,4,2) (1,6,1)         1     50.0000         16.6667         33.3333         0.00000         74.5356     LEFT
     (1,5,2) (1,7,1)         1     50.0000         16.6667         33.3333         0.00000         74.5356     LEFT
     (1,5,2) (1,8,1)         1     50.0000         16.6667         33.3333         0.00000         66.6667     LEFT
     (1,5,2) (1,9,1)         1     50.0000         16.6667         33.3333         0.00000         74.5356     LEFT
     (1,6,3) (1,9,1)         1     50.0000         16.6667         33.3333         90.0000         74.5356     BOTTOM
     (1,6,3) (1,9,2)         1     50.0000         16.6667         33.3333         90.0000         66.6667     BOTTOM
     (1,6,3) (1,9,3)         1     50.0000         16.6667         33.3333         90.0000         74.5356     BOTTOM
     (1,6,4) (1,9,4)         1     50.0000         16.6667         33.3333         90.0000         74.5356     BOTTOM
     (1,6,4) (1,9,5)         1     50.0000         16.6667         33.3333         90.0000         66.6667     BOTTOM
     (1,6,4) (1,9,6)         1     50.0000         16.6667         33.3333         90.0000         74.5356     BOTTOM
     (1,6,5) (1,9,7)         1     50.0000         16.6667         33.3333         90.0000         74.5356     BOTTOM
     (1,6,5) (1,9,8)         1     50.0000         16.6667         33.3333         90.0000         66.6667     BOTTOM
     (1,6,5) (1,9,9)         1     50.0000         16.6667         33.3333         90.0000         74.5356     BOTTOM
     (1,3,6) (1,1,9)         1     50.0000         16.6667         33.3333         180.000         74.5356     RIGHT
     (1,3,6) (1,2,9)         1     50.0000         16.6667         33.3333         180.000         66.6667     RIGHT
     (1,3,6) (1,3,9)         1     50.0000         16.6667         33.3333         180.000         74.5356     RIGHT
     (1,4,6) (1,4,9)         1     50.0000         16.6667         33.3333         180.000         74.5356     RIGHT
     (1,4,6) (1,5,9)         1     50.0000         16.6667         33.3333         180.000         66.6667     RIGHT
     (1,4,6) (1,6,9)         1     50.0000         16.6667         33.3333         180.000         74.5356     RIGHT
     (1,5,6) (1,7,9)         1     50.0000         16.6667         33.3333         180.000         74.5356     RIGHT
     (1,5,6) (1,8,9)         1     50.0000         16.6667         33.3333         180.000         66.6667     RIGHT
     (1,5,6) (1,9,9)         1     50.0000         16.6667         33.3333         180.000         74.5356     RIGHT
     (1,2,3) (1,1,1)         1     50.0000         16.6667         33.3333         270.000         74.5356     TOP
     (1,2,3) (1,1,2)         1     50.0000         16.6667         33.3333         270.000         66.6667     TOP
     (1,2,3) (1,1,3)         1     50.0000         16.6667         33.3333         270.000         74.5356     TOP
     (1,2,4) (1,1,4)         1     50.0000         16.6667         33.3333         270.000         74.5356     TOP
     (1,2,4) (1,1,5)         1     50.0000         16.6667         33.3333         270.000         66.6667     TOP
     (1,2,4) (1,1,6)         1     50.0000         16.6667         33.3333         270.000         74.5356     TOP
     (1,2,5) (1,1,7)         1     50.0000         16.6667         33.3333         270.000         74.5356     TOP
     (1,2,5) (1,1,8)         1     50.0000         16.6667         33.3333         270.000         66.6667     TOP
     (1,2,5) (1,1,9)         1     50.0000         16.6667         33.3333         270.000         74.5356     TOP
 END OF EXCHANGEDATA

PROCESSING MODEL CONNECTIONS
END OF MODEL CONNECTIONS

 IMS -- ITERATIVE MODEL SOLUTION PACKAGE, VERSION 6, 4/28/2017
         INPUT READ FROM UNIT 1017
 # File generated by Flopy version 3.9.1 on 06/21/2025 at 10:35:07.

 PROCESSING IMS OPTIONS
 END OF IMS OPTIONS

 PROCESSING IMS NONLINEAR
 END OF IMS NONLINEAR DATA
 ***UNDER-RELAXATION WILL NOT BE USED***
 
 ***IMS LINEAR SOLVER WILL BE USED***

 IMSLINEAR -- UNSTRUCTURED LINEAR SOLUTION PACKAGE, VERSION 8, 04/28/2017

 PROCESSING LINEAR DATA
 END OF LINEAR DATA
 
 OUTER ITERATION CONVERGENCE CRITERION    (DVCLOSE) =    0.100000E-08
 MAXIMUM NUMBER OF OUTER ITERATIONS        (MXITER) = 50
 SOLVER PRINTOUT INDEX                     (IPRIMS) = 0
 NONLINEAR ITERATION METHOD            (NONLINMETH) = 0
 LINEAR SOLUTION METHOD                   (LINMETH) = 1

       SOLUTION BY THE BICONJUGATE-GRADIENT STABILIZED METHOD
 ------------------------------------------------------------------
 MAXIMUM OF 50 CALLS OF SOLUTION ROUTINE
 MAXIMUM OF 100 INTERNAL ITERATIONS PER CALL TO SOLUTION ROUTINE
 LINEAR ACCELERATION METHOD            = BCGS      
 MATRIX PRECONDITIONING TYPE           = INCOMPLETE LU       
 MATRIX SCALING APPROACH               = NO SCALING          
 MATRIX REORDERING APPROACH            = ORIGINAL ORDERING        
 NUMBER OF ORTHOGONALIZATIONS          = 0
 HEAD CHANGE CRITERION FOR CLOSURE     =    0.10000E-08
 RESIDUAL CHANGE CRITERION FOR CLOSURE =    0.10000E-05
 RESIDUAL CONVERGENCE OPTION           = 1
 RESIDUAL CONVERGENCE NORM             = INFINITY NORM S 
 RELAXATION FACTOR                     =    0.00000E+00



 
    Solving:  Stress period:     1    Time step:     1
 
1
                            STRESS PERIOD NO. 1, LENGTH =   1.000000    
                            -----------------------------------------------
                            NUMBER OF TIME STEPS = 1
                            MULTIPLIER FOR DELT =     1.000
                            INITIAL TIME STEP SIZE =   1.000000    

 SUMMARY OF EXCHANGE RATES FOR EXCHANGE GWF-GWF_1 WITH ID 1
          NODEM1          NODEM2            COND            X_M1            X_M2            FLOW
------------------------------------------------------------------------------------------------
         (1,3,2)         (1,1,1)     50.0000        0.829529        0.708230        -6.06495    
         (1,3,2)         (1,2,1)     50.0000        0.829529        0.715327        -5.71012    
         (1,3,2)         (1,3,1)     50.0000        0.829529        0.717852        -5.58383    
         (1,4,2)         (1,4,1)     50.0000        0.830579        0.718940        -5.58198    
         (1,4,2)         (1,5,1)     50.0000        0.830579        0.719217        -5.56812    
         (1,4,2)         (1,6,1)     50.0000        0.830579        0.718940        -5.58198    
         (1,5,2)         (1,7,1)     50.0000        0.829529        0.717852        -5.58383    
         (1,5,2)         (1,8,1)     50.0000        0.829529        0.715327        -5.71012    
         (1,5,2)         (1,9,1)     50.0000        0.829529        0.708230        -6.06495    
         (1,6,3)         (1,9,1)     50.0000        0.664454        0.708230         2.18881    
         (1,6,3)         (1,9,2)     50.0000        0.664454        0.662372       -0.104094    
         (1,6,3)         (1,9,3)     50.0000        0.664454        0.615048        -2.47030    
         (1,6,4)         (1,9,4)     50.0000        0.500000        0.548033         2.40164    
         (1,6,4)         (1,9,5)     50.0000        0.500000        0.500000       -3.245737E-11
         (1,6,4)         (1,9,6)     50.0000        0.500000        0.451967        -2.40164    
         (1,6,5)         (1,9,7)     50.0000        0.335546        0.384952         2.47030    
         (1,6,5)         (1,9,8)     50.0000        0.335546        0.337628        0.104094    
         (1,6,5)         (1,9,9)     50.0000        0.335546        0.291770        -2.18881    
         (1,3,6)         (1,1,9)     50.0000        0.170471        0.291770         6.06495    
         (1,3,6)         (1,2,9)     50.0000        0.170471        0.284673         5.71012    
         (1,3,6)         (1,3,9)     50.0000        0.170471        0.282148         5.58383    
         (1,4,6)         (1,4,9)     50.0000        0.169421        0.281060         5.58198    
         (1,4,6)         (1,5,9)     50.0000        0.169421        0.280783         5.56812    
         (1,4,6)         (1,6,9)     50.0000        0.169421        0.281060         5.58198    
         (1,5,6)         (1,7,9)     50.0000        0.170471        0.282148         5.58383    
         (1,5,6)         (1,8,9)     50.0000        0.170471        0.284673         5.71012    
         (1,5,6)         (1,9,9)     50.0000        0.170471        0.291770         6.06495    
         (1,2,3)         (1,1,1)     50.0000        0.664454        0.708230         2.18881    
         (1,2,3)         (1,1,2)     50.0000        0.664454        0.662372       -0.104094    
         (1,2,3)         (1,1,3)     50.0000        0.664454        0.615048        -2.47030    
         (1,2,4)         (1,1,4)     50.0000        0.500000        0.548033         2.40164    
         (1,2,4)         (1,1,5)     50.0000        0.500000        0.500000       -2.927103E-11
         (1,2,4)         (1,1,6)     50.0000        0.500000        0.451967        -2.40164    
         (1,2,5)         (1,1,7)     50.0000        0.335546        0.384952         2.47030    
         (1,2,5)         (1,1,8)     50.0000        0.335546        0.337628        0.104094    
         (1,2,5)         (1,1,9)     50.0000        0.335546        0.291770        -2.18881    


 Solution SLN_1 summary
 ----------------------------------------------------------------------
 Total formulate time:  .000000000000000 seconds
 Total solution time:   .000000000000000 seconds


 MEMORY MANAGER TOTAL STORAGE BY DATA TYPE, IN KILOBYTES
 -------------------------------
                    ALLOCATED   
 DATA TYPE           MEMORY     
 -------------------------------
 Character        2.0980000     
 Logical          7.60000000E-02
 Integer          25.184000     
 Real             55.304000     
 -------------------------------
 Total            82.662000     
 -------------------------------


 
 Run end date and time (yyyy/mm/dd hh:mm:ss): 2025/06/21 10:35:07
 Elapsed run time:  0.139 Seconds
 Normal termination of simulation.
