                                   MODFLOW 6
                U.S. GEOLOGICAL SURVEY MODULAR HYDROLOGIC MODEL
                            VERSION 6.6.1 02/10/2025

   MODFLOW 6 compiled Feb 14 2025 13:40:10 with Intel(R) Fortran Intel(R) 64
   Compiler Classic for applications running on Intel(R) 64, Version 2021.7.0
                             Build 20220726_000000

This software has been approved for release by the U.S. Geological 
Survey (USGS). Although the software has been subjected to rigorous 
review, the USGS reserves the right to update the software as needed 
pursuant to further analysis and review. No warranty, expressed or 
implied, is made by the USGS or the U.S. Government as to the 
functionality of the software and related material nor shall the 
fact of release constitute any such warranty. Furthermore, the 
software is released on condition that neither the USGS nor the U.S. 
Government shall be held liable for any damages resulting from its 
authorized or unauthorized use. Also refer to the USGS Water 
Resources Software User Rights Notice for complete use, copyright, 
and distribution information.


As a work of the United States Government, this USGS product is 
in the public domain within the United States. You can copy, 
modify, distribute, and perform the work, even for commercial 
purposes, all without asking permission. Additionally, USGS 
waives copyright and related rights in the work worldwide 
through CC0 1.0 Universal Public Domain Dedication 
(https://creativecommons.org/publicdomain/zero/1.0/).

The following GNU Lesser General Public License (LGPL) libraries
are used in this USGS product:

    SPARSKIT version 2.0
      ilut, luson, and qsplit 
      (https://www-users.cse.umn.edu/~saad/software/SPARSKIT/)

    RCM - Reverse Cuthill McKee Ordering
      (https://people.math.sc.edu/Burkardt/f_src/rcm/rcm.html)

    BLAS - Basic Linear Algebra Subprograms Level 1
      (https://people.math.sc.edu/Burkardt/f_src/blas1_d/blas1_d.html)

    SPARSEKIT - Sparse Matrix Utility Package
      amux, dperm, dvperm, rperm, and cperm
      (https://people.sc.fsu.edu/~jburkardt/f77_src/sparsekit/sparsekit.html)

The following BSD-3 License libraries are used in this USGS product:

    Modern Fortran DAG Library
      Copyright (c) 2018, Jacob Williams
      All rights reserved.
      (https://github.com/jacobwilliams/daglib)

MODFLOW 6 compiler options: /O2 /heap-arrays:0 /fpe:0 /traceback /nologo /fpp
/c /module:win64\mod_mf6\ /object:win64\obj_mf6\

System command used to initiate simulation:
C:\Users\gross.DESKTOP-AIRQM2M\anaconda3\Scripts\mf6.exe

MODFLOW was compiled using uniform precision.

Real Variables
  KIND: 8
  TINY (smallest non-zero value):    2.225074-308
  HUGE (largest value):    1.797693+308
  PRECISION: 15
  SIZE IN BITS: 64

Integer Variables
  KIND: 4
  HUGE (largest value): 2147483647
  SIZE IN BITS: 32

Long Integer Variables
  KIND: 8
  HUGE (largest value): 9223372036854775807
  SIZE IN BITS: 64

Logical Variables
  KIND: 4
  SIZE IN BITS: 32
 

 OPENED mfsim.nam
 FILE TYPE:NAM6               UNIT 1001   STATUS:OLD                 
 FORMAT:FORMATTED              ACCESS:SEQUENTIAL          
 ACTION:READ                

 # File generated by Flopy version 3.9.1 on 05/21/2025 at 08:13:52.

 OPENED ex-gwf-bump.tdis
 FILE TYPE:TDIS6              UNIT 1002   STATUS:OLD                 
 FORMAT:FORMATTED              ACCESS:SEQUENTIAL          
 ACTION:READ                

 # File generated by Flopy version 3.9.1 on 05/21/2025 at 08:13:52.

 OPENED ex-gwf-bump.nam
 FILE TYPE:GWF6               UNIT 1003   STATUS:OLD                 
 FORMAT:FORMATTED              ACCESS:SEQUENTIAL          
 ACTION:READ                

 # File generated by Flopy version 3.9.1 on 05/21/2025 at 08:13:52.

 OPENED ex-gwf-bump.dis
 FILE TYPE:DIS6               UNIT 1004   STATUS:OLD                 
 FORMAT:FORMATTED              ACCESS:SEQUENTIAL          
 ACTION:READ                

 # File generated by Flopy version 3.9.1 on 05/21/2025 at 08:13:52.

 OPENED ex-gwf-bump.npf
 FILE TYPE:NPF6               UNIT 1005   STATUS:OLD                 
 FORMAT:FORMATTED              ACCESS:SEQUENTIAL          
 ACTION:READ                

 # File generated by Flopy version 3.9.1 on 05/21/2025 at 08:13:52.

 OPENED ex-gwf-bump.ic
 FILE TYPE:IC6                UNIT 1006   STATUS:OLD                 
 FORMAT:FORMATTED              ACCESS:SEQUENTIAL          
 ACTION:READ                

 # File generated by Flopy version 3.9.1 on 05/21/2025 at 08:13:52.

 OPENED ex-gwf-bump.oc
 FILE TYPE:OC6       UNIT 1007   STATUS:OLD                 
 FORMAT:FORMATTED              ACCESS:SEQUENTIAL          
 ACTION:READ                


 OPENED ex-gwf-bump.chd
 FILE TYPE:CHD6               UNIT 1008   STATUS:OLD                 
 FORMAT:FORMATTED              ACCESS:SEQUENTIAL          
 ACTION:READ                

 # File generated by Flopy version 3.9.1 on 05/21/2025 at 08:13:52.

 READING SIMULATION OPTIONS
    MAXIMUM NUMBER OF ERRORS THAT WILL BE STORED IS 1000
 END OF SIMULATION OPTIONS

 READING SIMULATION TIMING

 TDIS -- TEMPORAL DISCRETIZATION PACKAGE,
 VERSION 1 : 11/13/2014 - INPUT READ FROM MEMPATH: __INPUT__/SIM/TDIS                                
 PROCESSING TDIS OPTIONS
    SIMULATION TIME UNIT IS DAYS
 END OF TDIS OPTIONS
 PROCESSING TDIS DIMENSIONS
    1 STRESS PERIOD(S) IN SIMULATION
 END OF TDIS DIMENSIONS
 PROCESSING TDIS PERIODDATA


 STRESS PERIOD     LENGTH       TIME STEPS     MULTIPLIER FOR DELT
 ----------------------------------------------------------------------------
        1         1.000000          1                    1.000
 END OF TDIS PERIODDATA
 END OF SIMULATION TIMING

 READING SIMULATION MODELS
    GWF6 model 1 will be created
 END OF SIMULATION MODELS

 READING SIMULATION EXCHANGES
 END OF SIMULATION EXCHANGES

 READING SOLUTIONGROUP

 Creating solution: SLN_1           

 OPENED ex-gwf-bump.ims
 FILE TYPE:IMS   UNIT 1010   STATUS:OLD                 
 FORMAT:FORMATTED              ACCESS:SEQUENTIAL          
 ACTION:READ                

 END OF SOLUTIONGROUP

PROCESSING MODEL CONNECTIONS

 IMS -- ITERATIVE MODEL SOLUTION PACKAGE, VERSION 6, 4/28/2017
         INPUT READ FROM UNIT 1010
 # File generated by Flopy version 3.9.1 on 05/21/2025 at 08:13:52.

 PROCESSING IMS OPTIONS
 END OF IMS OPTIONS

 PROCESSING IMS NONLINEAR
 END OF IMS NONLINEAR DATA
 ***UNDER-RELAXATION WILL NOT BE USED***
 

 PROCESSING LINEAR DATA
 END OF LINEAR DATA
 ***IMS LINEAR SOLVER WILL BE USED***

 IMSLINEAR -- UNSTRUCTURED LINEAR SOLUTION PACKAGE, VERSION 8, 04/28/2017
 An asymmetric matrix will be solved

 OUTER ITERATION CONVERGENCE CRITERION    (DVCLOSE) =    0.100000E-08
 MAXIMUM NUMBER OF OUTER ITERATIONS        (MXITER) = 500
 SOLVER PRINTOUT INDEX                     (IPRIMS) = 2
 NONLINEAR ITERATION METHOD            (NONLINMETH) = 0
 LINEAR SOLUTION METHOD                   (LINMETH) = 1

       SOLUTION BY THE BICONJUGATE-GRADIENT STABILIZED METHOD
 ------------------------------------------------------------------
 MAXIMUM OF 500 CALLS OF SOLUTION ROUTINE
 MAXIMUM OF 500 INTERNAL ITERATIONS PER CALL TO SOLUTION ROUTINE
 LINEAR ACCELERATION METHOD            = BCGS      
 MATRIX PRECONDITIONING TYPE           = INCOMPLETE LU       
 MATRIX SCALING APPROACH               = NO SCALING          
 MATRIX REORDERING APPROACH            = ORIGINAL ORDERING        
 NUMBER OF ORTHOGONALIZATIONS          = 0
 HEAD CHANGE CRITERION FOR CLOSURE     =    0.10000E-08
 RESIDUAL CHANGE CRITERION FOR CLOSURE =    0.10000E-05
 RESIDUAL CONVERGENCE OPTION           = 0
 RESIDUAL CONVERGENCE NORM             = INFINITY NORM   
 RELAXATION FACTOR                     =    0.00000E+00



 
    Solving:  Stress period:     1    Time step:     1
 
1
 STRESS PERIOD NO. 1, LENGTH =   1.000000    
 ------------------------------------------
 NUMBER OF TIME STEPS = 1
 MULTIPLIER FOR DELT =     1.000
 INITIAL TIME STEP SIZE =   1.000000    



 PSEUDO-TRANSIENT CONTINUATION WILL BE APPLIED TO MODEL 1 ("EX-GWF-BUMP") DURING THIS TIME STEP

 SLN_1 OUTER ITERATION SUMMARY
 ----------------------------------------------------------------------------------------------------------
                                OUTER      INNER                    STEP   MAXIMUM CHANGE MODEL-(CELLID) OR
 OUTER ITERATION STEP       ITERATION  ITERATION  MAXIMUM CHANGE SUCCESS             MODEL-PACKAGE-(NUMBER)
 ----------------------------------------------------------------------------------------------------------
 Model                              1         27      -2.6086560                            1_GWF-(1,16,50)
 Model                              2         39      -1.4166695                            1_GWF-(1,36,48)
 Model                              3         50      -1.3715418                            1_GWF-(1,26,42)
 Model                              4         45      -1.0761180                            1_GWF-(1,22,42)
 Model                              5         47     -0.44037900                            1_GWF-(1,20,43)
 Model                              6         46     -0.10644638                            1_GWF-(1,25,45)
 Model                              7         31 -3.18963940E-02                            1_GWF-(1,26,45)
 Model                              8         27 -1.11276182E-02                            1_GWF-(1,26,45)
 Model                              9         15 -2.32272025E-03                            1_GWF-(1,26,45)
 Model                             10         11 -9.96102383E-05                            1_GWF-(1,26,45)
 Model                             11         16 -1.69460517E-06                            1_GWF-(1,19,42)
 Model                             12         78 -8.47211660E-07                            1_GWF-(1,33,42)
 Model                             13        228 -4.87026992E-06                            1_GWF-(1,24,42)
 Model                             14        500  7.55995275E-07                            1_GWF-(1,24,42)
 Model                             15         10  7.24849314E-07                            1_GWF-(1,23,43)
 Model                             16         11 -3.83592780E-07                            1_GWF-(1,23,43)
 Model                             17         10 -2.60778686E-07                            1_GWF-(1,22,44)
 Model                             18          1 -6.41808828E-10       *                    1_GWF-(1,22,44)
 ----------------------------------------------------------------------------------------------------------


 18 CALLS TO NUMERICAL SOLUTION IN TIME STEP 1 STRESS PERIOD 1
 1192 TOTAL ITERATIONS

 SLN_1 INNER ITERATION SUMMARY
 --------------------------------------------------------------------------------------------------------------------------------------
      TOTAL      OUTER      INNER                                                            MAXIMUM                                   
  ITERATION  ITERATION  ITERATION  MAXIMUM CHANGE      MAXIMUM CHANGE MODEL-(CELLID)        RESIDUAL    MAXIMUM RESIDUAL MODEL-(CELLID)
 --------------------------------------------------------------------------------------------------------------------------------------
          1          1          1      -2.4080163                    1_GWF-(1,51,50)       1.7176268                    1_GWF-(1,50,48)
          2          1          2     -0.55333592                    1_GWF-(1,16,47)      0.52525221                     1_GWF-(1,3,48)
          3          1          3     -0.22083485                    1_GWF-(1,41,46)      0.19277636                     1_GWF-(1,3,47)
          4          1          4     -0.12006969                    1_GWF-(1,44,44)  9.99105448E-02                     1_GWF-(1,3,47)
          5          1          5 -5.13190321E-02                    1_GWF-(1,45,42)  3.84349970E-02                     1_GWF-(1,3,47)
          6          1          6 -2.57027955E-02                     1_GWF-(1,3,41)  2.26346534E-02                     1_GWF-(1,3,47)
          7          1          7 -1.13700246E-02                     1_GWF-(1,2,39)  8.28059582E-03                     1_GWF-(1,3,47)
          8          1          8 -5.84424451E-03                     1_GWF-(1,2,38) -4.49120959E-03                     1_GWF-(1,2,48)
          9          1          9 -2.64586313E-03                     1_GWF-(1,2,36)  1.32369114E-03                     1_GWF-(1,2,34)
         10          1         10 -1.20571351E-03                     1_GWF-(1,2,35) -7.14931348E-04                     1_GWF-(1,2,48)
         11          1         11 -4.18972204E-04                     1_GWF-(1,2,32) -2.37018977E-04                     1_GWF-(1,2,48)
         12          1         12 -1.71794436E-04                     1_GWF-(1,2,29) -1.23979524E-04                     1_GWF-(1,2,48)
         13          1         13 -6.96337237E-05                     1_GWF-(1,2,27) -4.32252004E-05                     1_GWF-(1,2,48)
         14          1         14 -3.13275799E-05                     1_GWF-(1,2,24) -2.20910442E-05                     1_GWF-(1,2,47)
         15          1         15 -1.41166803E-05                     1_GWF-(1,2,22)  7.94511337E-06                     1_GWF-(1,2,17)
         16          1         16 -6.86602238E-06                     1_GWF-(1,2,19)  3.74800597E-06                     1_GWF-(1,3,46)
         17          1         17 -2.87314724E-06                     1_GWF-(1,2,17)  1.55104323E-06                     1_GWF-(1,2,14)
         18          1         18 -1.29253323E-06                     1_GWF-(1,2,15)  8.35422663E-07                     1_GWF-(1,2,45)
         19          1         19 -5.67845090E-07                     1_GWF-(1,2,14)  3.08798835E-07                     1_GWF-(1,2,13)
         20          1         20 -2.79816853E-07                     1_GWF-(1,2,13)  1.27077832E-07                     1_GWF-(1,2,45)
         21          1         21 -1.18000575E-07                     1_GWF-(1,2,13)  3.90312150E-08                     1_GWF-(1,2,12)
         22          1         22 -4.01084727E-08                     1_GWF-(1,2,13)  1.52112975E-08                     1_GWF-(1,2,44)
         23          1         23 -1.06025240E-08                     1_GWF-(1,2,13)  4.75688473E-09                     1_GWF-(1,2,14)
         24          1         24 -3.29658555E-09                     1_GWF-(1,2,14) -2.58330852E-09                    1_GWF-(1,50,14)
         25          1         25 -1.56414697E-09                     1_GWF-(1,2,14) -1.72774386E-09                    1_GWF-(1,50,14)
         26          1         26  1.00631525E-09                    1_GWF-(1,49,14) -1.12635768E-09                    1_GWF-(1,50,14)
         27          1         27  2.84259923E-10                    1_GWF-(1,49,14) -9.56592834E-10                    1_GWF-(1,50,14)
         28          2          1      -1.0570064                    1_GWF-(1,26,50)      0.69979148                    1_GWF-(1,39,48)
         29          2          2     -0.46306041                    1_GWF-(1,26,47)      0.30739151                     1_GWF-(1,3,47)
         30          2          3     -0.33559438                    1_GWF-(1,25,45)      0.17200006                     1_GWF-(1,2,42)
         31          2          4     -0.22870882                    1_GWF-(1,41,43)      0.11241032                     1_GWF-(1,2,39)
         32          2          5     -0.14701433                    1_GWF-(1,44,41)  7.76259704E-02                     1_GWF-(1,2,37)
         33          2          6 -9.95903875E-02                     1_GWF-(1,4,39)  5.23115613E-02                     1_GWF-(1,2,35)
         34          2          7 -6.68054291E-02                     1_GWF-(1,2,37)  3.49853199E-02                     1_GWF-(1,2,33)
         35          2          8 -4.69766403E-02                     1_GWF-(1,2,35) -2.31978731E-02                     1_GWF-(1,2,48)
         36          2          9 -3.24077827E-02                     1_GWF-(1,2,33)  1.45911469E-02                     1_GWF-(1,2,29)
         37          2         10 -2.36678045E-02                     1_GWF-(1,2,31)  8.91981618E-03                     1_GWF-(1,2,26)
         38          2         11 -1.50391126E-02                     1_GWF-(1,2,29)  5.58565026E-03                     1_GWF-(1,2,23)
         39          2         12 -8.47616540E-03                     1_GWF-(1,2,26) -3.92492900E-03                     1_GWF-(1,2,47)
         40          2         13 -5.30286524E-03                     1_GWF-(1,2,24)  2.49945541E-03                     1_GWF-(1,2,18)
         41          2         14 -3.55261645E-03                     1_GWF-(1,2,21) -1.97193040E-03                     1_GWF-(1,2,47)
         42          2         15 -2.36395325E-03                     1_GWF-(1,2,19)  1.07428618E-03                     1_GWF-(1,2,15)
         43          2         16 -1.75570013E-03                     1_GWF-(1,2,18) -7.09674713E-04                     1_GWF-(1,2,47)
         44          2         17 -1.13788873E-03                     1_GWF-(1,2,17)  3.60547086E-04                     1_GWF-(1,2,13)
         45          2         18 -7.02095381E-04                     1_GWF-(1,2,15)  1.82034622E-04                     1_GWF-(1,2,12)
         46          2         19 -3.63544597E-04                     1_GWF-(1,2,15)  8.78393661E-05                     1_GWF-(1,2,12)
         47          2         20 -1.70784522E-04                     1_GWF-(1,2,14)  4.58042624E-05                     1_GWF-(1,2,44)
         48          2         21 -7.26735474E-05                     1_GWF-(1,2,14)  2.44539482E-05                     1_GWF-(1,2,44)
         49          2         22 -3.74897183E-05                     1_GWF-(1,2,14)  2.33694904E-05                     1_GWF-(1,2,44)
         50          2         23 -1.87257903E-05                     1_GWF-(1,2,14)  1.18566099E-05                     1_GWF-(1,2,44)
         51          2         24 -1.48227596E-05                     1_GWF-(1,2,15)  1.08017491E-05                     1_GWF-(1,2,44)
         52          2         25 -1.03033436E-05                     1_GWF-(1,2,17)  6.39483409E-06                     1_GWF-(1,2,44)
         53          2         26  6.85550143E-06                    1_GWF-(1,50,20)  6.81000264E-06                     1_GWF-(1,2,44)
         54          2         27  4.36376937E-06                    1_GWF-(1,50,19)  2.83024962E-06                     1_GWF-(1,2,44)
         55          2         28  4.96022627E-06                    1_GWF-(1,50,20)  2.83100158E-06                     1_GWF-(1,2,44)
         56          2         29  3.64206557E-06                    1_GWF-(1,50,20)  1.13394928E-06                     1_GWF-(1,2,44)
         57          2         30  2.69867102E-06                    1_GWF-(1,50,21)  8.76493728E-07                     1_GWF-(1,2,44)
         58          2         31  1.89169881E-06                    1_GWF-(1,50,21)  2.28658089E-07                     1_GWF-(1,2,37)
         59          2         32  8.58440007E-07                    1_GWF-(1,50,31) -2.27576964E-07                     1_GWF-(1,2,44)
         60          2         33 -1.19939700E-08                     1_GWF-(1,1,45) -2.87662490E-08                    1_GWF-(1,50,16)
         61          2         34  5.95118377E-08                    1_GWF-(1,50,22)  2.33304175E-08                     1_GWF-(1,2,43)
         62          2         35  4.63948195E-08                    1_GWF-(1,50,21)  9.58784569E-09                     1_GWF-(1,2,43)
         63          2         36  5.14768041E-09                    1_GWF-(1,50,15) -7.42213291E-09                    1_GWF-(1,50,15)
         64          2         37  3.89046408E-09                    1_GWF-(1,50,20) -6.65782888E-09                    1_GWF-(1,50,15)
         65          2         38  1.62999095E-08                    1_GWF-(1,50,20)  3.47624671E-09                     1_GWF-(1,2,21)
         66          2         39  4.49048161E-10                    1_GWF-(1,49,15)  3.38599151E-09                     1_GWF-(1,2,21)
         67          3          1     -0.41713037                    1_GWF-(1,26,50)      0.22539412                    1_GWF-(1,39,48)
         68          3          2     -0.37759872                    1_GWF-(1,26,46)      0.13540603                    1_GWF-(1,44,44)
         69          3          3     -0.43172084                    1_GWF-(1,26,43)  9.91997951E-02                    1_GWF-(1,47,40)
         70          3          4     -0.31193687                    1_GWF-(1,26,41)  8.43656317E-02                     1_GWF-(1,2,37)
         71          3          5     -0.18796087                    1_GWF-(1,38,39)  6.82283169E-02                     1_GWF-(1,2,35)
         72          3          6     -0.13068288                    1_GWF-(1,46,37)  5.47018966E-02                     1_GWF-(1,2,33)
         73          3          7     -0.11369438                     1_GWF-(1,2,35)  4.14679626E-02                     1_GWF-(1,2,30)
         74          3          8 -9.53020242E-02                     1_GWF-(1,2,33)  3.13451674E-02                     1_GWF-(1,2,28)
         75          3          9 -8.13871830E-02                     1_GWF-(1,2,32)  2.36085018E-02                     1_GWF-(1,2,24)
         76          3         10 -6.65358563E-02                     1_GWF-(1,2,30)  1.79866836E-02                     1_GWF-(1,2,21)
         77          3         11 -4.60975606E-02                     1_GWF-(1,2,27) -1.39925960E-02                     1_GWF-(1,2,47)
         78          3         12 -3.08519824E-02                     1_GWF-(1,2,24)  1.09120819E-02                     1_GWF-(1,2,17)
         79          3         13 -2.49732599E-02                     1_GWF-(1,2,22) -9.47539804E-03                     1_GWF-(1,2,47)
         80          3         14 -1.84002523E-02                     1_GWF-(1,2,20)  5.85367822E-03                     1_GWF-(1,2,14)
         81          3         15 -1.59059519E-02                     1_GWF-(1,2,18) -4.14268082E-03                     1_GWF-(1,2,47)
         82          3         16 -1.15765253E-02                     1_GWF-(1,2,17)  2.30401348E-03                     1_GWF-(1,2,12)
         83          3         17 -7.72382888E-03                     1_GWF-(1,2,16) -1.23786956E-03                     1_GWF-(1,2,47)
         84          3         18 -4.30636696E-03                     1_GWF-(1,2,15)  6.09154538E-04                     1_GWF-(1,2,11)
         85          3         19 -2.17628083E-03                     1_GWF-(1,3,14)  4.21415229E-04                     1_GWF-(1,3,45)
         86          3         20 -9.27738990E-04                    1_GWF-(1,13,15)  2.31769192E-04                     1_GWF-(1,2,44)
         87          3         21 -5.51700152E-04                    1_GWF-(1,21,15)  2.49581120E-04                     1_GWF-(1,2,44)
         88          3         22 -3.06776215E-04                    1_GWF-(1,21,15)  1.33355905E-04                     1_GWF-(1,2,44)
         89          3         23 -2.74162136E-04                    1_GWF-(1,21,16)  1.15735834E-04                     1_GWF-(1,2,44)
         90          3         24 -2.37926430E-04                    1_GWF-(1,20,16) -7.91890139E-05                    1_GWF-(1,50,18)
         91          3         25  1.62486793E-04                    1_GWF-(1,50,22)  9.52678582E-05                     1_GWF-(1,2,43)
         92          3         26  7.90048173E-05                    1_GWF-(1,50,22)  6.12478597E-05                     1_GWF-(1,2,22)
         93          3         27 -7.75174729E-05                     1_GWF-(1,2,23)  5.52333934E-05                     1_GWF-(1,2,43)
         94          3         28 -9.66815939E-05                     1_GWF-(1,2,24)  4.47497120E-05                     1_GWF-(1,2,23)
         95          3         29 -1.08834538E-04                     1_GWF-(1,2,24)  3.45659343E-05                     1_GWF-(1,2,25)
         96          3         30 -1.44574134E-04                     1_GWF-(1,2,24)  2.10103343E-05                     1_GWF-(1,2,27)
         97          3         31  1.16462803E-04                    1_GWF-(1,50,25)  1.43401254E-05                     1_GWF-(1,2,43)
         98          3         32  9.42543299E-05                    1_GWF-(1,50,25)  5.20742560E-06                     1_GWF-(1,2,37)
         99          3         33 -2.91621360E-05                     1_GWF-(1,2,38) -5.07502752E-06                    1_GWF-(1,22,19)
        100          3         34  7.17115541E-06                    1_GWF-(1,22,20)  1.64326491E-06                     1_GWF-(1,2,26)
        101          3         35 -6.62109776E-06                     1_GWF-(1,2,27)  1.01748541E-06                     1_GWF-(1,2,26)
        102          3         36 -4.14477738E-06                     1_GWF-(1,2,27)  1.24405939E-06                    1_GWF-(1,22,19)
        103          3         37  1.74873197E-06                    1_GWF-(1,21,21)  5.54974371E-07                     1_GWF-(1,2,28)
        104          3         38 -1.20237296E-06                    1_GWF-(1,21,21)  6.64500224E-07                    1_GWF-(1,22,19)
        105          3         39 -1.90397857E-06                     1_GWF-(1,2,28)  2.88927735E-07                     1_GWF-(1,2,30)
        106          3         40  8.95292516E-07                     1_GWF-(1,2,28)  3.73498557E-07                     1_GWF-(1,2,29)
        107          3         41 -2.91640375E-06                     1_GWF-(1,2,28)  1.09095689E-07                     1_GWF-(1,2,35)
        108          3         42  5.64663431E-07                    1_GWF-(1,50,29) -1.00515121E-07                    1_GWF-(1,22,19)
        109          3         43  1.57117584E-07                    1_GWF-(1,22,20)  5.88990700E-08                     1_GWF-(1,2,35)
        110          3         44  3.15123516E-07                    1_GWF-(1,50,29)  3.26165219E-08                     1_GWF-(1,2,37)
        111          3         45  3.24064429E-07                    1_GWF-(1,50,28) -8.44413265E-09                    1_GWF-(1,23,18)
        112          3         46 -1.52446361E-08                     1_GWF-(1,1,39) -6.89440198E-09                     1_GWF-(1,2,25)
        113          3         47  6.64320692E-09                    1_GWF-(1,22,20) -6.48607060E-09                     1_GWF-(1,2,25)
        114          3         48  5.87743226E-09                    1_GWF-(1,21,21) -5.85319842E-09                     1_GWF-(1,2,26)
        115          3         49 -2.48057559E-09                    1_GWF-(1,50,37) -5.47041536E-09                     1_GWF-(1,2,26)
        116          3         50 -9.67180840E-10                    1_GWF-(1,50,38) -5.30237789E-09                     1_GWF-(1,2,26)
        117          4          1     -0.26333156                    1_GWF-(1,28,39)  6.04330772E-02                    1_GWF-(1,26,47)
        118          4          2     -0.61686074                    1_GWF-(1,26,42)  4.66100373E-02                    1_GWF-(1,46,42)
        119          4          3     -0.41160991                    1_GWF-(1,26,44)  4.43706023E-02                     1_GWF-(1,3,38)
        120          4          4     -0.11973972                    1_GWF-(1,40,40)  4.05571335E-02                     1_GWF-(1,3,37)
        121          4          5 -8.70202898E-02                    1_GWF-(1,46,38)  3.43912593E-02                     1_GWF-(1,2,35)
        122          4          6     -0.26426984                    1_GWF-(1,49,37)  2.38315492E-02                     1_GWF-(1,3,47)
        123          4          7 -9.68540673E-02                     1_GWF-(1,1,33) -3.89281925E-02                     1_GWF-(1,2,48)
        124          4          8 -1.29526662E-02                     1_GWF-(1,1,26)  1.36549376E-02                     1_GWF-(1,2,21)
        125          4          9  1.43464417E-02                     1_GWF-(1,2,25)  1.64777136E-02                     1_GWF-(1,2,23)
        126          4         10 -1.16517227E-02                    1_GWF-(1,26,45) -2.15882163E-02                     1_GWF-(1,2,48)
        127          4         11     -0.11162410                     1_GWF-(1,1,26)  6.65228742E-03                     1_GWF-(1,2,16)
        128          4         12 -4.53717544E-02                     1_GWF-(1,2,18)  2.40421016E-03                     1_GWF-(1,2,33)
        129          4         13  2.08423021E-03                    1_GWF-(1,21,21)  2.16013397E-03                     1_GWF-(1,2,33)
        130          4         14 -2.07025765E-02                     1_GWF-(1,1,30)  1.29981297E-03                     1_GWF-(1,2,25)
        131          4         15 -7.18375440E-03                     1_GWF-(1,2,27)  1.02048276E-03                    1_GWF-(1,22,19)
        132          4         16 -4.31752361E-03                     1_GWF-(1,2,25)  8.53824302E-04                    1_GWF-(1,22,19)
        133          4         17 -1.61781777E-03                    1_GWF-(1,20,22)  4.35067099E-04                     1_GWF-(1,2,22)
        134          4         18 -1.18906511E-03                     1_GWF-(1,2,24)  3.24027768E-04                     1_GWF-(1,2,21)
        135          4         19 -6.01219063E-03                     1_GWF-(1,2,24)  4.40851543E-04                     1_GWF-(1,3,50)
        136          4         20  5.82346802E-03                     1_GWF-(1,2,24)  2.94569632E-04                     1_GWF-(1,2,21)
        137          4         21 -2.82511314E-03                     1_GWF-(1,2,24)  8.16002282E-05                    1_GWF-(1,22,19)
        138          4         22 -1.15916473E-04                    1_GWF-(1,20,22)  6.44008825E-05                     1_GWF-(1,2,21)
        139          4         23 -5.41013436E-04                     1_GWF-(1,1,26)  9.17341911E-05                     1_GWF-(1,7,47)
        140          4         24 -7.10462110E-05                    1_GWF-(1,21,21)  3.37282143E-05                     1_GWF-(1,2,29)
        141          4         25 -1.30608652E-04                     1_GWF-(1,2,30)  2.63472309E-05                     1_GWF-(1,2,26)
        142          4         26 -6.59293705E-05                     1_GWF-(1,2,29)  3.92844073E-05                    1_GWF-(1,22,19)
        143          4         27 -1.07108134E-04                     1_GWF-(1,2,29)  1.71020879E-05                     1_GWF-(1,2,27)
        144          4         28 -1.90862328E-04                     1_GWF-(1,2,30)  2.34061810E-05                    1_GWF-(1,22,19)
        145          4         29 -4.38329926E-05                    1_GWF-(1,20,22)  5.56721236E-06                     1_GWF-(1,2,24)
        146          4         30  7.42090480E-05                    1_GWF-(1,50,30) -8.95650785E-06                     1_GWF-(1,7,46)
        147          4         31 -4.15825195E-06                    1_GWF-(1,22,37)  3.04548598E-06                     1_GWF-(1,8,45)
        148          4         32 -1.56809747E-05                     1_GWF-(1,2,30)  1.16513797E-06                     1_GWF-(1,2,30)
        149          4         33 -7.90844598E-06                     1_GWF-(1,2,30)  3.72809087E-07                     1_GWF-(1,2,40)
        150          4         34 -2.01650844E-06                     1_GWF-(1,2,32)  1.98118186E-07                     1_GWF-(1,2,36)
        151          4         35 -1.14622212E-06                     1_GWF-(1,1,34)  9.85171846E-08                     1_GWF-(1,2,38)
        152          4         36 -1.00110190E-06                     1_GWF-(1,1,34) -2.91454804E-08                    1_GWF-(1,49,37)
        153          4         37 -2.52657269E-07                     1_GWF-(1,1,31) -2.16209883E-08                    1_GWF-(1,50,39)
        154          4         38  5.29011162E-08                     1_GWF-(1,1,37) -1.88445422E-08                    1_GWF-(1,50,36)
        155          4         39 -2.70609066E-08                    1_GWF-(1,19,23)  1.72883480E-08                     1_GWF-(1,2,24)
        156          4         40 -5.06351122E-08                     1_GWF-(1,2,31)  1.51713396E-08                     1_GWF-(1,2,25)
        157          4         41 -1.27174612E-07                     1_GWF-(1,2,28)  8.63792797E-09                     1_GWF-(1,2,25)
        158          4         42  1.66950596E-07                     1_GWF-(1,2,29)  1.69988002E-08                     1_GWF-(1,2,24)
        159          4         43 -3.18733294E-07                     1_GWF-(1,2,29)  8.22022517E-10                    1_GWF-(1,50,10)
        160          4         44 -2.84462189E-09                     1_GWF-(1,2,28)  8.23087022E-10                    1_GWF-(1,50,10)
        161          4         45 -2.55801268E-10                     1_GWF-(1,2,28)  8.15904179E-10                    1_GWF-(1,50,10)
        162          5          1     -0.23890461                    1_GWF-(1,26,44)  1.89895118E-02                    1_GWF-(1,24,47)
        163          5          2     -0.34950275                    1_GWF-(1,22,45) -2.77093023E-02                    1_GWF-(1,17,41)
        164          5          3      0.10145039                    1_GWF-(1,23,45)  1.13593022E-02                    1_GWF-(1,10,45)
        165          5          4 -2.90132273E-02                    1_GWF-(1,40,43)  1.00316519E-02                     1_GWF-(1,2,37)
        166          5          5 -6.22917486E-02                    1_GWF-(1,46,41) -8.65720177E-03                    1_GWF-(1,14,44)
        167          5          6 -4.15678376E-02                    1_GWF-(1,50,39)  4.56658853E-03                     1_GWF-(1,2,33)
        168          5          7 -1.96433052E-02                     1_GWF-(1,1,37)  3.76135046E-03                     1_GWF-(1,2,27)
        169          5          8  4.57980572E-02                     1_GWF-(1,2,35)  6.83109963E-03                     1_GWF-(1,2,33)
        170          5          9 -7.83945014E-02                     1_GWF-(1,2,34)  2.07441110E-03                     1_GWF-(1,2,19)
        171          5         10 -1.21646044E-02                     1_GWF-(1,1,29) -1.79703130E-03                     1_GWF-(1,8,50)
        172          5         11 -6.04651122E-03                     1_GWF-(1,1,28)  1.37404256E-03                     1_GWF-(1,2,16)
        173          5         12 -3.17059239E-03                     1_GWF-(1,2,17) -1.62293506E-03                     1_GWF-(1,8,50)
        174          5         13 -9.54134432E-03                     1_GWF-(1,1,27)  5.56146334E-04                     1_GWF-(1,2,16)
        175          5         14 -1.97398191E-03                     1_GWF-(1,2,24)  4.47709384E-04                     1_GWF-(1,2,16)
        176          5         15 -4.01365688E-03                     1_GWF-(1,2,24)  2.07644872E-04                     1_GWF-(1,2,15)
        177          5         16 -4.61093743E-04                    1_GWF-(1,20,21)  2.01574813E-04                     1_GWF-(1,2,16)
        178          5         17 -1.85847252E-03                     1_GWF-(1,2,23)  8.90628572E-05                     1_GWF-(1,2,16)
        179          5         18 -6.30888883E-04                     1_GWF-(1,2,21)  5.00459495E-05                     1_GWF-(1,2,17)
        180          5         19 -7.79900496E-04                     1_GWF-(1,2,24) -4.48246570E-05                     1_GWF-(1,9,50)
        181          5         20  2.66927149E-04                     1_GWF-(1,2,24)  2.21493070E-05                     1_GWF-(1,2,18)
        182          5         21 -2.01892227E-04                     1_GWF-(1,2,25)  1.98953228E-05                    1_GWF-(1,10,50)
        183          5         22  5.23063957E-05                    1_GWF-(1,48,25)  1.44806165E-05                     1_GWF-(1,2,19)
        184          5         23 -2.20928457E-05                     1_GWF-(1,1,27)  1.38803904E-05                     1_GWF-(1,2,20)
        185          5         24 -5.31400509E-05                     1_GWF-(1,1,28)  1.18511442E-05                     1_GWF-(1,2,27)
        186          5         25 -5.44962586E-05                     1_GWF-(1,2,29)  9.44809233E-06                     1_GWF-(1,2,31)
        187          5         26  3.36590388E-05                    1_GWF-(1,50,30)  1.07759834E-05                    1_GWF-(1,14,28)
        188          5         27 -1.43232405E-05                    1_GWF-(1,16,26)  8.65196973E-06                     1_GWF-(1,2,27)
        189          5         28 -9.73643248E-06                     1_GWF-(1,3,32)  8.38535242E-06                     1_GWF-(1,2,29)
        190          5         29 -1.03184953E-04                     1_GWF-(1,1,32)  1.03716893E-05                    1_GWF-(1,15,26)
        191          5         30  8.32714910E-05                     1_GWF-(1,1,32)  2.06567191E-05                     1_GWF-(1,6,50)
        192          5         31 -1.13953083E-04                     1_GWF-(1,2,32)  2.59970535E-06                     1_GWF-(1,2,29)
        193          5         32 -9.91250744E-06                     1_GWF-(1,2,32)  2.18705322E-06                     1_GWF-(1,2,29)
        194          5         33 -3.64101767E-05                     1_GWF-(1,2,32)  8.37991235E-07                     1_GWF-(1,2,28)
        195          5         34 -5.46555344E-05                     1_GWF-(1,2,32) -2.22059089E-06                     1_GWF-(1,6,50)
        196          5         35  4.59449987E-05                     1_GWF-(1,2,32)  2.64842965E-07                     1_GWF-(1,2,28)
        197          5         36 -4.17578874E-06                     1_GWF-(1,1,31)  1.55543794E-07                    1_GWF-(1,15,26)
        198          5         37 -7.24726511E-07                     1_GWF-(1,2,33)  7.70667161E-08                     1_GWF-(1,2,28)
        199          5         38 -2.88392755E-07                     1_GWF-(1,2,32)  5.14658304E-08                     1_GWF-(1,2,29)
        200          5         39 -7.11844044E-07                     1_GWF-(1,2,32)  1.41445346E-08                     1_GWF-(1,2,28)
        201          5         40  6.58616719E-09                    1_GWF-(1,16,40)  1.33233191E-08                     1_GWF-(1,2,35)
        202          5         41 -2.24523709E-07                     1_GWF-(1,2,33)  4.19018449E-09                     1_GWF-(1,2,33)
        203          5         42 -4.70126726E-08                     1_GWF-(1,2,33)  2.13724128E-09                     1_GWF-(1,2,33)
        204          5         43 -3.09998161E-08                     1_GWF-(1,2,33)  9.50470820E-10                     1_GWF-(1,2,28)
        205          5         44 -4.62429838E-08                     1_GWF-(1,2,33) -1.74110241E-09                     1_GWF-(1,2,33)
        206          5         45 -2.02608176E-08                     1_GWF-(1,2,33) -2.69429301E-09                     1_GWF-(1,2,33)
        207          5         46  6.01149554E-08                     1_GWF-(1,2,33)  5.49185791E-10                     1_GWF-(1,2,27)
        208          5         47  5.47385580E-11                     1_GWF-(1,3,33)  5.49856147E-10                     1_GWF-(1,2,27)
        209          6          1 -8.89204618E-02                    1_GWF-(1,26,45)  3.89266658E-03                    1_GWF-(1,18,43)
        210          6          2 -2.30959388E-02                    1_GWF-(1,18,43)  1.80881236E-03                    1_GWF-(1,15,48)
        211          6          3 -1.68933965E-02                    1_GWF-(1,20,43)  1.91580767E-03                    1_GWF-(1,13,37)
        212          6          4  5.80389170E-03                    1_GWF-(1,18,41)  8.86217770E-04                     1_GWF-(1,6,45)
        213          6          5  4.29686660E-03                    1_GWF-(1,19,44)  7.90228508E-04                    1_GWF-(1,14,40)
        214          6          6 -7.58113624E-04                    1_GWF-(1,16,38)  5.91595447E-04                     1_GWF-(1,2,39)
        215          6          7 -7.94630348E-03                    1_GWF-(1,13,41)  2.98089834E-04                     1_GWF-(1,2,33)
        216          6          8 -5.74633074E-03                    1_GWF-(1,42,41) -4.62642018E-04                    1_GWF-(1,11,45)
        217          6          9  3.96241565E-03                    1_GWF-(1,15,42)  1.76001929E-04                    1_GWF-(1,13,48)
        218          6         10  2.64075395E-04                    1_GWF-(1,18,23)  1.60673051E-04                     1_GWF-(1,2,22)
        219          6         11  6.30121138E-04                     1_GWF-(1,1,41)  1.06898438E-04                     1_GWF-(1,2,21)
        220          6         12 -9.16540101E-05                     1_GWF-(1,2,37)  1.05870985E-04                     1_GWF-(1,2,21)
        221          6         13 -4.36583008E-04                     1_GWF-(1,2,30)  8.25399139E-05                     1_GWF-(1,2,20)
        222          6         14 -2.12457259E-04                    1_GWF-(1,15,28)  6.83404671E-05                     1_GWF-(1,2,19)
        223          6         15 -1.00126926E-03                     1_GWF-(1,2,30)  2.61135567E-05                     1_GWF-(1,2,15)
        224          6         16 -1.62730357E-04                     1_GWF-(1,2,22)  3.09107635E-05                     1_GWF-(1,9,50)
        225          6         17  3.08311026E-04                     1_GWF-(1,2,24) -8.40527235E-05                    1_GWF-(1,10,50)
        226          6         18  1.88565558E-04                    1_GWF-(1,17,39)  4.08226537E-05                     1_GWF-(1,2,17)
        227          6         19 -4.55324041E-04                     1_GWF-(1,2,22) -2.35039725E-05                    1_GWF-(1,21,19)
        228          6         20 -1.35534800E-04                     1_GWF-(1,2,31)  8.48697043E-06                     1_GWF-(1,2,23)
        229          6         21 -1.34001689E-04                     1_GWF-(1,2,31)  1.50435166E-06                     1_GWF-(1,2,23)
        230          6         22 -1.66054624E-05                     1_GWF-(1,3,30) -5.95808863E-07                    1_GWF-(1,50,35)
        231          6         23  4.13608585E-06                    1_GWF-(1,49,36)  5.56489309E-07                     1_GWF-(1,2,16)
        232          6         24 -5.58232966E-06                    1_GWF-(1,40,31)  1.05417929E-06                     1_GWF-(1,2,15)
        233          6         25  1.12418282E-05                    1_GWF-(1,41,31)  4.18746342E-07                     1_GWF-(1,2,26)
        234          6         26  7.32686739E-07                    1_GWF-(1,26,46)  3.73352473E-07                     1_GWF-(1,2,22)
        235          6         27  1.68591119E-05                    1_GWF-(1,10,29)  3.22203001E-06                     1_GWF-(1,2,46)
        236          6         28 -1.91932277E-05                    1_GWF-(1,10,29)  2.55711942E-07                     1_GWF-(1,2,33)
        237          6         29 -8.38337254E-07                     1_GWF-(1,2,34)  1.90264884E-07                     1_GWF-(1,2,29)
        238          6         30 -1.34806936E-07                    1_GWF-(1,18,23)  1.49408762E-07                     1_GWF-(1,2,28)
        239          6         31  9.02508370E-07                    1_GWF-(1,49,34)  1.70953888E-07                     1_GWF-(1,2,39)
        240          6         32 -2.63516685E-07                    1_GWF-(1,14,36)  1.47558532E-07                     1_GWF-(1,2,34)
        241          6         33  1.92104092E-07                    1_GWF-(1,44,37)  1.13153627E-07                     1_GWF-(1,2,29)
        242          6         34 -2.01400027E-06                     1_GWF-(1,2,33)  7.08665079E-08                     1_GWF-(1,2,15)
        243          6         35  1.69991504E-07                     1_GWF-(1,3,32)  3.31197983E-08                     1_GWF-(1,2,26)
        244          6         36 -5.59132134E-07                     1_GWF-(1,2,33)  8.04783347E-09                     1_GWF-(1,2,29)
        245          6         37 -6.25092978E-09                     1_GWF-(1,5,32)  7.86500226E-09                     1_GWF-(1,2,29)
        246          6         38  6.35372544E-09                     1_GWF-(1,6,32)  7.82800695E-09                     1_GWF-(1,2,31)
        247          6         39  1.88785406E-09                    1_GWF-(1,51,34)  7.79132549E-09                     1_GWF-(1,2,31)
        248          6         40 -6.19925454E-08                     1_GWF-(1,2,33)  5.41921998E-09                     1_GWF-(1,2,31)
        249          6         41 -3.45430720E-08                     1_GWF-(1,2,33)  4.08747533E-09                     1_GWF-(1,2,31)
        250          6         42 -5.85225372E-08                     1_GWF-(1,2,33)  1.81932333E-09                     1_GWF-(1,2,31)
        251          6         43 -9.39907951E-09                     1_GWF-(1,2,33)  1.45433699E-09                     1_GWF-(1,2,31)
        252          6         44 -5.50438802E-09                     1_GWF-(1,2,33)  1.23984963E-09                     1_GWF-(1,2,31)
        253          6         45 -4.68738014E-09                     1_GWF-(1,2,33)  1.05698028E-09                     1_GWF-(1,2,31)
        254          6         46 -8.58877368E-10                     1_GWF-(1,2,33)  1.02331589E-09                     1_GWF-(1,2,31)
        255          7          1 -3.07213514E-02                    1_GWF-(1,26,45)  3.44088763E-04                    1_GWF-(1,22,47)
        256          7          2 -4.79621752E-04                    1_GWF-(1,18,41)  4.72953852E-04                    1_GWF-(1,21,46)
        257          7          3 -2.53623679E-03                    1_GWF-(1,20,44)  5.97918838E-05                    1_GWF-(1,13,48)
        258          7          4 -6.17461949E-05                    1_GWF-(1,23,45)  3.61795624E-05                    1_GWF-(1,11,47)
        259          7          5 -1.07276300E-04                    1_GWF-(1,12,45)  1.10180689E-05                     1_GWF-(1,8,43)
        260          7          6 -8.21446662E-05                    1_GWF-(1,17,41)  1.07528353E-05                     1_GWF-(1,2,41)
        261          7          7 -3.58517505E-05                     1_GWF-(1,1,42)  5.58194065E-06                    1_GWF-(1,10,45)
        262          7          8  5.71891128E-06                    1_GWF-(1,18,41)  5.15095904E-06                     1_GWF-(1,9,46)
        263          7          9  1.32645524E-04                     1_GWF-(1,9,41)  2.21279784E-05                     1_GWF-(1,9,46)
        264          7         10 -1.79321888E-04                     1_GWF-(1,9,41)  1.96816457E-06                     1_GWF-(1,2,27)
        265          7         11 -1.15287400E-05                    1_GWF-(1,15,37)  1.49068725E-06                     1_GWF-(1,2,24)
        266          7         12 -4.28988577E-06                     1_GWF-(1,2,25)  1.29169691E-06                    1_GWF-(1,11,50)
        267          7         13 -1.29421877E-05                     1_GWF-(1,2,35)  8.23894584E-07                     1_GWF-(1,2,23)
        268          7         14 -7.44653685E-07                    1_GWF-(1,19,42)  8.03284483E-07                     1_GWF-(1,2,23)
        269          7         15 -1.98484981E-06                     1_GWF-(1,2,24)  6.59517427E-07                     1_GWF-(1,2,18)
        270          7         16  3.84686321E-07                    1_GWF-(1,30,46)  6.59124410E-07                     1_GWF-(1,2,18)
        271          7         17 -9.10581957E-06                     1_GWF-(1,2,31) -3.66620489E-07                     1_GWF-(1,7,50)
        272          7         18 -8.36253357E-07                    1_GWF-(1,19,42)  2.62027631E-07                     1_GWF-(1,2,17)
        273          7         19 -1.53206308E-06                     1_GWF-(1,1,30)  1.96323747E-07                     1_GWF-(1,2,18)
        274          7         20 -1.85257333E-06                     1_GWF-(1,2,31)  1.06020971E-07                     1_GWF-(1,2,16)
        275          7         21 -1.17364449E-06                     1_GWF-(1,1,29)  5.52879529E-08                     1_GWF-(1,2,20)
        276          7         22 -5.76790672E-08                    1_GWF-(1,18,23)  5.01284239E-08                     1_GWF-(1,2,17)
        277          7         23 -6.00828101E-07                     1_GWF-(1,1,28)  2.12342524E-08                     1_GWF-(1,2,18)
        278          7         24 -2.35961953E-07                     1_GWF-(1,2,28)  9.82684392E-09                     1_GWF-(1,2,21)
        279          7         25 -7.75671925E-08                     1_GWF-(1,2,28)  6.36935133E-09                     1_GWF-(1,2,22)
        280          7         26  6.30839684E-08                     1_GWF-(1,2,28)  9.18778272E-09                     1_GWF-(1,2,19)
        281          7         27 -1.12571394E-07                     1_GWF-(1,2,27) -4.53768472E-09                    1_GWF-(1,50,21)
        282          7         28 -1.56587208E-08                     1_GWF-(1,2,27) -4.74782228E-09                    1_GWF-(1,50,20)
        283          7         29  5.51781887E-08                     1_GWF-(1,2,27)  5.76909359E-09                     1_GWF-(1,2,21)
        284          7         30  1.09473526E-09                    1_GWF-(1,49,30)  5.76924488E-09                     1_GWF-(1,2,21)
        285          7         31 -6.04722092E-10                     1_GWF-(1,2,30)  5.74318756E-09                     1_GWF-(1,2,21)
        286          8          1 -1.09734766E-02                    1_GWF-(1,26,45)  3.24124589E-05                    1_GWF-(1,22,47)
        287          8          2 -2.00730102E-04                    1_GWF-(1,24,45)  1.14098038E-05                    1_GWF-(1,21,49)
        288          8          3  1.32434675E-05                    1_GWF-(1,24,46)  2.85386354E-06                    1_GWF-(1,21,48)
        289          8          4 -1.35388625E-05                    1_GWF-(1,23,46)  5.85101015E-07                    1_GWF-(1,12,47)
        290          8          5  1.80845546E-05                    1_GWF-(1,18,44)  3.49182565E-06                    1_GWF-(1,13,47)
        291          8          6 -2.17341138E-05                    1_GWF-(1,18,44)  1.70928717E-07                     1_GWF-(1,2,42)
        292          8          7 -4.22326985E-07                     1_GWF-(1,2,42)  1.05594087E-07                     1_GWF-(1,2,38)
        293          8          8 -6.89157548E-07                    1_GWF-(1,20,41)  7.81301692E-08                     1_GWF-(1,2,36)
        294          8          9 -2.47374653E-07                     1_GWF-(1,2,40)  5.65736486E-08                     1_GWF-(1,2,33)
        295          8         10 -5.72092657E-08                    1_GWF-(1,18,40)  5.46377295E-08                     1_GWF-(1,2,35)
        296          8         11 -3.01283931E-07                     1_GWF-(1,6,39)  3.81281469E-08                     1_GWF-(1,2,33)
        297          8         12 -2.58685082E-07                     1_GWF-(1,4,38)  2.67146642E-08                     1_GWF-(1,2,27)
        298          8         13  9.54764780E-09                    1_GWF-(1,20,41)  2.63255986E-08                     1_GWF-(1,2,28)
        299          8         14 -2.14706020E-07                     1_GWF-(1,3,36)  1.85114931E-08                     1_GWF-(1,2,23)
        300          8         15  7.37133383E-08                     1_GWF-(1,2,35)  2.13576874E-08                     1_GWF-(1,2,25)
        301          8         16 -2.01996989E-07                     1_GWF-(1,2,34)  1.39177083E-08                     1_GWF-(1,2,20)
        302          8         17  2.99607253E-07                     1_GWF-(1,2,32)  2.64760813E-08                     1_GWF-(1,2,24)
        303          8         18 -4.57557096E-07                     1_GWF-(1,2,32)  8.06003320E-09                     1_GWF-(1,2,16)
        304          8         19  6.18662151E-09                     1_GWF-(1,2,35)  8.05886669E-09                     1_GWF-(1,2,16)
        305          8         20  1.82152225E-08                     1_GWF-(1,2,29)  8.88790296E-09                     1_GWF-(1,2,17)
        306          8         21 -4.84934527E-08                     1_GWF-(1,2,29)  6.57918299E-09                     1_GWF-(1,2,16)
        307          8         22 -1.91274292E-08                     1_GWF-(1,2,28)  5.61258483E-09                     1_GWF-(1,2,16)
        308          8         23 -2.00372943E-08                     1_GWF-(1,2,27)  4.57325666E-09                     1_GWF-(1,2,16)
        309          8         24 -1.92960740E-08                     1_GWF-(1,2,27)  3.56741934E-09                     1_GWF-(1,2,15)
        310          8         25 -1.00203691E-08                     1_GWF-(1,2,27)  3.04467740E-09                     1_GWF-(1,2,15)
        311          8         26 -3.04073751E-09                     1_GWF-(1,2,26)  2.87970421E-09                     1_GWF-(1,2,15)
        312          8         27 -8.62143556E-10                     1_GWF-(1,2,24)  2.82817813E-09                     1_GWF-(1,2,15)
        313          9          1 -2.30102651E-03                    1_GWF-(1,26,45)  4.30255002E-06                    1_GWF-(1,23,47)
        314          9          2 -1.86197224E-05                    1_GWF-(1,26,45)  2.80098986E-06                    1_GWF-(1,22,48)
        315          9          3 -9.65224243E-06                    1_GWF-(1,24,46)  1.65925506E-07                    1_GWF-(1,22,48)
        316          9          4 -8.39754938E-07                    1_GWF-(1,20,42)  3.10701981E-08                    1_GWF-(1,13,47)
        317          9          5  1.47698288E-07                    1_GWF-(1,18,40)  2.74399338E-08                    1_GWF-(1,21,48)
        318          9          6 -1.06077918E-07                    1_GWF-(1,18,44)  7.41655284E-09                    1_GWF-(1,10,45)
        319          9          7 -1.81482563E-07                    1_GWF-(1,17,43) -1.53977454E-08                    1_GWF-(1,13,46)
        320          9          8  1.33894678E-07                    1_GWF-(1,17,43)  5.10291275E-09                     1_GWF-(1,2,41)
        321          9          9 -6.85507145E-09                    1_GWF-(1,17,41)  4.74501195E-09                     1_GWF-(1,2,40)
        322          9         10  2.46132546E-08                    1_GWF-(1,13,41)  6.22592708E-09                     1_GWF-(1,2,42)
        323          9         11  1.01687039E-08                    1_GWF-(1,14,41)  6.89738825E-09                     1_GWF-(1,2,42)
        324          9         12 -1.30590613E-08                    1_GWF-(1,13,41)  5.98039077E-09                     1_GWF-(1,2,42)
        325          9         13 -3.98473745E-08                    1_GWF-(1,13,41)  3.77472740E-09                     1_GWF-(1,2,37)
        326          9         14 -1.45711734E-08                    1_GWF-(1,12,41)  3.59717992E-09                     1_GWF-(1,2,34)
        327          9         15 -3.30216568E-10                     1_GWF-(1,2,39)  3.58014798E-09                     1_GWF-(1,2,34)
        328         10          1 -9.90340066E-05                    1_GWF-(1,26,45)  1.48728632E-07                    1_GWF-(1,24,47)
        329         10          2 -6.33312016E-06                    1_GWF-(1,20,41)  2.69123912E-08                    1_GWF-(1,23,48)
        330         10          3 -6.01608000E-07                    1_GWF-(1,20,42)  4.34084182E-09                    1_GWF-(1,19,48)
        331         10          4 -9.43563825E-08                    1_GWF-(1,20,41)  2.50611397E-09                    1_GWF-(1,14,48)
        332         10          5  8.86839683E-09                    1_GWF-(1,20,41)  2.48391119E-09                     1_GWF-(1,2,33)
        333         10          6 -1.69797854E-09                    1_GWF-(1,20,41)  2.48244133E-09                     1_GWF-(1,2,33)
        334         10          7  1.50364574E-08                    1_GWF-(1,20,41)  2.46895470E-09                     1_GWF-(1,2,33)
        335         10          8  1.31665079E-08                    1_GWF-(1,20,41)  2.44922955E-09                     1_GWF-(1,2,33)
        336         10          9  7.33751976E-09                    1_GWF-(1,20,41)  2.43096324E-09                     1_GWF-(1,2,33)
        337         10         10  2.41017539E-09                    1_GWF-(1,20,41)  2.41779873E-09                     1_GWF-(1,2,33)
        338         10         11  5.91133582E-10                    1_GWF-(1,20,42)  2.40650679E-09                     1_GWF-(1,2,33)
        339         11          1  3.45510596E-06                    1_GWF-(1,20,41)  6.41140210E-09                    1_GWF-(1,17,40)
        340         11          2 -4.45429587E-06                    1_GWF-(1,20,41)  3.20231007E-09                    1_GWF-(1,15,39)
        341         11          3  3.30340678E-06                    1_GWF-(1,20,41)  5.17576784E-09                    1_GWF-(1,16,41)
        342         11          4 -1.12061755E-06                    1_GWF-(1,20,41)  4.65731500E-09                    1_GWF-(1,17,43)
        343         11          5  1.03090269E-07                    1_GWF-(1,20,41)  3.97342686E-09                    1_GWF-(1,16,41)
        344         11          6 -5.37327677E-07                    1_GWF-(1,20,41)  2.08468093E-09                    1_GWF-(1,18,42)
        345         11          7 -8.89859297E-07                    1_GWF-(1,20,42) -4.58831089E-09                    1_GWF-(1,17,45)
        346         11          8 -2.42741774E-08                    1_GWF-(1,17,41) -5.47724063E-09                    1_GWF-(1,17,45)
        347         11          9  4.60952784E-08                    1_GWF-(1,20,42) -4.87894618E-09                    1_GWF-(1,16,45)
        348         11         10  1.49593580E-08                    1_GWF-(1,20,42) -4.54568808E-09                    1_GWF-(1,16,45)
        349         11         11  6.77522771E-09                    1_GWF-(1,20,42) -4.30902394E-09                    1_GWF-(1,16,45)
        350         11         12  3.74267969E-09                    1_GWF-(1,20,42) -4.12576039E-09                    1_GWF-(1,16,45)
        351         11         13  2.25927411E-09                    1_GWF-(1,20,42) -3.97706865E-09                    1_GWF-(1,16,45)
        352         11         14  1.49254209E-09                    1_GWF-(1,20,42) -3.85249693E-09                    1_GWF-(1,16,45)
        353         11         15  1.14356036E-09                    1_GWF-(1,20,44) -3.76057231E-09                    1_GWF-(1,16,46)
        354         11         16  9.81192799E-10                    1_GWF-(1,20,44) -3.68161667E-09                    1_GWF-(1,16,46)
        355         12          1  2.24677899E-06                    1_GWF-(1,20,41) -3.33559056E-09                    1_GWF-(1,16,45)
        356         12          2 -2.82145068E-06                    1_GWF-(1,24,42) -2.56559205E-09                    1_GWF-(1,15,46)
        357         12          3 -2.01040707E-06                    1_GWF-(1,20,41) -1.86193257E-09                    1_GWF-(1,13,46)
        358         12          4 -4.37428076E-07                    1_GWF-(1,20,42) -2.05247559E-09                    1_GWF-(1,17,40)
        359         12          5  6.39671750E-07                    1_GWF-(1,24,42) -1.74860558E-09                    1_GWF-(1,17,40)
        360         12          6  6.36666076E-07                    1_GWF-(1,24,42) -1.33922339E-09                    1_GWF-(1,17,40)
        361         12          7  4.98544936E-07                    1_GWF-(1,24,42) -1.18641610E-09                     1_GWF-(1,9,46)
        362         12          8  3.71785046E-07                    1_GWF-(1,20,41) -1.11649624E-09                     1_GWF-(1,8,45)
        363         12          9  2.75173706E-07                    1_GWF-(1,20,41) -1.06696209E-09                     1_GWF-(1,8,45)
        364         12         10  1.97311269E-07                    1_GWF-(1,20,41) -1.01909537E-09                     1_GWF-(1,8,45)
        365         12         11  1.43250554E-07                    1_GWF-(1,20,41) -9.73744717E-10                     1_GWF-(1,8,45)
        366         12         12  1.08250312E-07                    1_GWF-(1,20,41) -9.31282284E-10                     1_GWF-(1,7,44)
        367         12         13  8.70201746E-08                    1_GWF-(1,20,42) -8.99758498E-10                     1_GWF-(1,7,44)
        368         12         14  7.74944962E-08                    1_GWF-(1,20,42) -8.65529825E-10                     1_GWF-(1,7,44)
        369         12         15  7.64556391E-08                    1_GWF-(1,20,42) -8.25590888E-10                     1_GWF-(1,7,44)
        370         12         16  8.63325355E-08                    1_GWF-(1,20,42) -7.74033556E-10                     1_GWF-(1,7,44)
        371         12         17  1.15038231E-07                    1_GWF-(1,20,42) -7.22596302E-10                     1_GWF-(1,6,43)
        372         12         18  1.75592142E-07                    1_GWF-(1,20,42) -7.50048909E-10                     1_GWF-(1,2,42)
        373         12         19  2.22094321E-07                    1_GWF-(1,20,42) -8.17099340E-10                     1_GWF-(1,2,42)
        374         12         20 -1.88805130E-07                    1_GWF-(1,20,42) -7.61859334E-10                     1_GWF-(1,2,42)
        375         12         21 -2.69610568E-07                    1_GWF-(1,20,42) -7.57845479E-10                     1_GWF-(1,6,43)
        376         12         22  4.08573485E-07                    1_GWF-(1,20,42) -8.09245562E-10                     1_GWF-(1,2,42)
        377         12         23 -3.87042522E-07                    1_GWF-(1,20,42) -7.47375672E-10                     1_GWF-(1,6,43)
        378         12         24 -5.72800240E-07                    1_GWF-(1,20,42) -1.34651741E-09                     1_GWF-(1,8,45)
        379         12         25  1.79232618E-07                    1_GWF-(1,20,42) -1.10895131E-09                     1_GWF-(1,8,45)
        380         12         26 -7.98899042E-08                    1_GWF-(1,20,42) -1.22661059E-09                     1_GWF-(1,8,45)
        381         12         27  5.02286140E-08                    1_GWF-(1,20,42) -1.15029268E-09                     1_GWF-(1,8,45)
        382         12         28 -1.37487347E-08                    1_GWF-(1,20,41) -1.17577300E-09                     1_GWF-(1,8,45)
        383         12         29  2.00448167E-08                    1_GWF-(1,20,42) -1.14206417E-09                     1_GWF-(1,8,45)
        384         12         30 -7.20323959E-09                    1_GWF-(1,24,42) -1.14682460E-09                     1_GWF-(1,8,45)
        385         12         31  1.11298755E-08                    1_GWF-(1,20,42) -1.12664110E-09                     1_GWF-(1,8,45)
        386         12         32 -6.25700163E-09                    1_GWF-(1,24,42) -1.12571098E-09                     1_GWF-(1,8,45)
        387         12         33  7.59291987E-09                    1_GWF-(1,20,42) -1.11096414E-09                     1_GWF-(1,8,45)
        388         12         34 -5.33716396E-09                    1_GWF-(1,24,42) -1.10851960E-09                     1_GWF-(1,8,45)
        389         12         35  5.83167172E-09                    1_GWF-(1,20,42) -1.09633630E-09                     1_GWF-(1,8,45)
        390         12         36 -4.56351943E-09                    1_GWF-(1,24,42) -1.09385870E-09                     1_GWF-(1,8,45)
        391         12         37  4.83315122E-09                    1_GWF-(1,20,42) -1.08287820E-09                     1_GWF-(1,8,45)
        392         12         38 -3.92400057E-09                    1_GWF-(1,24,42) -1.08112123E-09                     1_GWF-(1,8,45)
        393         12         39  4.26222820E-09                    1_GWF-(1,20,42) -1.07040023E-09                     1_GWF-(1,8,45)
        394         12         40 -3.38335603E-09                    1_GWF-(1,24,42) -1.07005540E-09                     1_GWF-(1,8,45)
        395         12         41  4.01810578E-09                    1_GWF-(1,20,42) -1.05856281E-09                     1_GWF-(1,8,45)
        396         12         42 -2.89943966E-09                    1_GWF-(1,24,42) -1.06070382E-09                     1_GWF-(1,8,45)
        397         12         43  4.13283956E-09                    1_GWF-(1,20,42) -1.04680299E-09                     1_GWF-(1,8,45)
        398         12         44 -2.41365581E-09                    1_GWF-(1,24,42) -1.05357523E-09                     1_GWF-(1,8,45)
        399         12         45  4.79619315E-09                    1_GWF-(1,20,42) -1.03403012E-09                     1_GWF-(1,8,45)
        400         12         46  9.71340375E-09                    1_GWF-(1,20,42) -9.98435510E-10                     1_GWF-(1,8,45)
        401         12         47 -9.80357935E-09                    1_GWF-(1,20,42) -1.04224477E-09                     1_GWF-(1,8,45)
        402         12         48  1.58752677E-08                    1_GWF-(1,20,42) -9.73499702E-10                     1_GWF-(1,8,45)
        403         12         49 -2.05686012E-08                    1_GWF-(1,20,42) -1.07697869E-09                     1_GWF-(1,8,45)
        404         12         50 -1.77177200E-08                    1_GWF-(1,20,42) -1.19524318E-09                     1_GWF-(1,8,45)
        405         12         51  2.26614348E-08                    1_GWF-(1,20,42) -1.05676248E-09                     1_GWF-(1,8,45)
        406         12         52  3.10737115E-08                    1_GWF-(1,20,42) -8.76510137E-10                     1_GWF-(1,7,44)
        407         12         53  6.51030439E-08                    1_GWF-(1,20,42) -6.55456641E-10                     1_GWF-(1,2,41)
        408         12         54 -2.52112233E-07                    1_GWF-(1,24,42)  2.04245228E-09                     1_GWF-(1,9,46)
        409         12         55 -7.51027195E-08                    1_GWF-(1,20,42)  1.96684549E-09                     1_GWF-(1,9,46)
        410         12         56 -4.72032097E-08                    1_GWF-(1,20,42)  1.84085415E-09                     1_GWF-(1,9,46)
        411         12         57 -2.92222244E-08                    1_GWF-(1,20,42)  1.74785797E-09                     1_GWF-(1,9,46)
        412         12         58 -1.97449555E-08                    1_GWF-(1,20,42)  1.67625181E-09                     1_GWF-(1,9,46)
        413         12         59 -1.42099732E-08                    1_GWF-(1,20,42)  1.61888482E-09                     1_GWF-(1,9,46)
        414         12         60 -1.07113077E-08                    1_GWF-(1,20,42)  1.57152021E-09                     1_GWF-(1,9,46)
        415         12         61 -8.36405851E-09                    1_GWF-(1,20,42)  1.53149035E-09                     1_GWF-(1,9,46)
        416         12         62 -6.71476833E-09                    1_GWF-(1,20,42)  1.49702437E-09                     1_GWF-(1,9,46)
        417         12         63 -5.51229053E-09                    1_GWF-(1,20,42)  1.46689751E-09                     1_GWF-(1,9,46)
        418         12         64 -4.60876597E-09                    1_GWF-(1,20,42)  1.44023280E-09                     1_GWF-(1,9,46)
        419         12         65 -3.91266681E-09                    1_GWF-(1,20,42)  1.41638408E-09                     1_GWF-(1,9,46)
        420         12         66 -3.36494024E-09                    1_GWF-(1,20,42)  1.39486345E-09                     1_GWF-(1,9,46)
        421         12         67 -2.92612590E-09                    1_GWF-(1,20,42)  1.37529472E-09                     1_GWF-(1,9,46)
        422         12         68 -2.56905647E-09                    1_GWF-(1,20,42)  1.35738253E-09                     1_GWF-(1,9,46)
        423         12         69 -2.27453743E-09                    1_GWF-(1,20,42)  1.34089128E-09                     1_GWF-(1,9,46)
        424         12         70 -2.02869857E-09                    1_GWF-(1,20,42)  1.32563038E-09                     1_GWF-(1,9,46)
        425         12         71 -1.82131574E-09                    1_GWF-(1,20,42)  1.31144377E-09                     1_GWF-(1,9,46)
        426         12         72 -1.64471898E-09                    1_GWF-(1,20,42)  1.29820218E-09                     1_GWF-(1,9,46)
        427         12         73 -1.49306302E-09                    1_GWF-(1,20,42)  1.28579752E-09                     1_GWF-(1,9,46)
        428         12         74 -1.36183018E-09                    1_GWF-(1,20,42)  1.27413856E-09                     1_GWF-(1,9,46)
        429         12         75 -1.24748388E-09                    1_GWF-(1,20,42)  1.26314769E-09                     1_GWF-(1,9,46)
        430         12         76 -1.14722362E-09                    1_GWF-(1,20,42)  1.25275839E-09                     1_GWF-(1,9,46)
        431         12         77  1.06375743E-09                    1_GWF-(1,24,42)  1.24291325E-09                     1_GWF-(1,9,46)
        432         12         78  9.92575359E-10                    1_GWF-(1,24,42)  1.23356241E-09                     1_GWF-(1,9,46)
        433         13          1  1.05382820E-05                    1_GWF-(1,24,42)  1.29831652E-09                    1_GWF-(1,19,41)
        434         13          2  8.22206386E-07                    1_GWF-(1,21,36)  1.12552146E-09                    1_GWF-(1,18,42)
        435         13          3 -8.20933888E-07                    1_GWF-(1,24,42)  1.17209775E-09                    1_GWF-(1,18,42)
        436         13          4 -9.31697959E-07                    1_GWF-(1,24,42)  1.10295009E-09                    1_GWF-(1,18,42)
        437         13          5 -9.58903124E-07                    1_GWF-(1,24,42)  1.01687623E-09                    1_GWF-(1,18,42)
        438         13          6 -1.10606332E-06                    1_GWF-(1,24,42)  9.12694538E-10                    1_GWF-(1,18,42)
        439         13          7  7.84620745E-07                    1_GWF-(1,24,42)  9.82647298E-10                    1_GWF-(1,18,42)
        440         13          8 -1.09175114E-06                    1_GWF-(1,24,42)  8.80537916E-10                    1_GWF-(1,18,42)
        441         13          9  9.59422599E-07                    1_GWF-(1,24,42)  9.66483210E-10                    1_GWF-(1,18,42)
        442         13         10 -1.35544472E-06                    1_GWF-(1,24,42)  8.40743266E-10                    1_GWF-(1,18,42)
        443         13         11  1.51369535E-06                    1_GWF-(1,24,42)  9.77406334E-10                    1_GWF-(1,18,42)
        444         13         12 -2.05987363E-06                    1_GWF-(1,24,42)  7.87515453E-10                    1_GWF-(1,18,42)
        445         13         13 -3.27903933E-06                    1_GWF-(1,24,42)  6.32676861E-10                     1_GWF-(1,9,46)
        446         13         14  7.80721617E-06                    1_GWF-(1,24,42)  1.20406266E-09                    1_GWF-(1,18,42)
        447         13         15 -7.56703360E-06                    1_GWF-(1,24,42)  6.31477494E-10                     1_GWF-(1,9,46)
        448         13         16 -1.39039625E-05                    1_GWF-(1,24,42) -7.94961084E-10                    1_GWF-(1,18,42)
        449         13         17 -1.02211970E-05                    1_GWF-(1,24,42) -1.76991658E-09                    1_GWF-(1,18,42)
        450         13         18  5.57008218E-07                    1_GWF-(1,24,42) -1.74297032E-09                    1_GWF-(1,18,42)
        451         13         19  1.67879523E-06                    1_GWF-(1,24,42) -1.60697405E-09                    1_GWF-(1,18,42)
        452         13         20  1.51156434E-06                    1_GWF-(1,24,42) -1.48280588E-09                    1_GWF-(1,18,42)
        453         13         21  1.25790966E-06                    1_GWF-(1,24,42) -1.38181436E-09                    1_GWF-(1,17,40)
        454         13         22  1.05232102E-06                    1_GWF-(1,24,42) -1.30006041E-09                    1_GWF-(1,17,40)
        455         13         23  8.95370383E-07                    1_GWF-(1,24,42) -1.23023694E-09                    1_GWF-(1,17,40)
        456         13         24  7.74552418E-07                    1_GWF-(1,24,42) -1.16963145E-09                    1_GWF-(1,17,40)
        457         13         25  6.79675999E-07                    1_GWF-(1,24,42) -1.11627936E-09                    1_GWF-(1,17,40)
        458         13         26  6.03668573E-07                    1_GWF-(1,24,42) -1.06874657E-09                    1_GWF-(1,17,40)
        459         13         27  5.41695146E-07                    1_GWF-(1,24,42) -1.02596433E-09                    1_GWF-(1,17,40)
        460         13         28  4.90396144E-07                    1_GWF-(1,24,42) -9.87118530E-10                    1_GWF-(1,17,40)
        461         13         29  4.47383222E-07                    1_GWF-(1,24,42) -9.51576362E-10                    1_GWF-(1,17,40)
        462         13         30  4.10919670E-07                    1_GWF-(1,24,42) -9.18836989E-10                    1_GWF-(1,17,40)
        463         13         31  3.79716449E-07                    1_GWF-(1,24,42) -8.88497592E-10                    1_GWF-(1,17,40)
        464         13         32  3.52799340E-07                    1_GWF-(1,24,42) -8.60229465E-10                    1_GWF-(1,17,40)
        465         13         33  3.29420381E-07                    1_GWF-(1,24,42) -8.33760830E-10                    1_GWF-(1,17,40)
        466         13         34  3.08997493E-07                    1_GWF-(1,24,42) -8.08864216E-10                    1_GWF-(1,17,40)
        467         13         35  2.91072481E-07                    1_GWF-(1,24,42) -7.85347026E-10                    1_GWF-(1,17,40)
        468         13         36  2.75281284E-07                    1_GWF-(1,24,42) -7.63044357E-10                    1_GWF-(1,17,40)
        469         13         37  2.61332599E-07                    1_GWF-(1,24,42) -7.41813444E-10                    1_GWF-(1,17,40)
        470         13         38  2.48992343E-07                    1_GWF-(1,24,42) -7.21529274E-10                    1_GWF-(1,17,40)
        471         13         39  2.38072273E-07                    1_GWF-(1,24,42) -7.02081065E-10                    1_GWF-(1,17,40)
        472         13         40  2.28421679E-07                    1_GWF-(1,24,42) -6.83369363E-10                    1_GWF-(1,17,40)
        473         13         41  2.19921379E-07                    1_GWF-(1,24,42) -6.65303595E-10                    1_GWF-(1,17,40)
        474         13         42  2.12479569E-07                    1_GWF-(1,24,42) -6.47799911E-10                    1_GWF-(1,17,40)
        475         13         43  2.06029215E-07                    1_GWF-(1,24,42) -6.30779223E-10                    1_GWF-(1,17,40)
        476         13         44  2.00526901E-07                    1_GWF-(1,24,42) -6.14165297E-10                    1_GWF-(1,17,40)
        477         13         45  1.95953162E-07                    1_GWF-(1,24,42) -5.97882788E-10                    1_GWF-(1,17,40)
        478         13         46  1.92314553E-07                    1_GWF-(1,24,42) -5.81855074E-10                    1_GWF-(1,17,40)
        479         13         47  1.89647967E-07                    1_GWF-(1,24,42) -5.66001687E-10                    1_GWF-(1,17,40)
        480         13         48 -5.51674635E-08                    1_GWF-(1,24,42) -5.70613432E-10                    1_GWF-(1,17,40)
        481         13         49  3.27542692E-08                    1_GWF-(1,24,42) -5.67863278E-10                    1_GWF-(1,17,40)
        482         13         50  4.60030338E-08                    1_GWF-(1,24,42) -5.64007496E-10                    1_GWF-(1,17,40)
        483         13         51  3.61174195E-08                    1_GWF-(1,24,42) -5.60974309E-10                    1_GWF-(1,17,40)
        484         13         52  4.14237554E-08                    1_GWF-(1,24,42) -5.57495546E-10                    1_GWF-(1,17,40)
        485         13         53  3.67282281E-08                    1_GWF-(1,24,42) -5.54407677E-10                    1_GWF-(1,17,40)
        486         13         54  3.87286077E-08                    1_GWF-(1,24,42) -5.51149936E-10                    1_GWF-(1,17,40)
        487         13         55  3.62645085E-08                    1_GWF-(1,24,42) -5.48096992E-10                    1_GWF-(1,17,40)
        488         13         56  3.68543905E-08                    1_GWF-(1,24,42) -5.44992271E-10                    1_GWF-(1,17,40)
        489         13         57  3.53900917E-08                    1_GWF-(1,24,42) -5.42008793E-10                    1_GWF-(1,17,40)
        490         13         58  3.53681677E-08                    1_GWF-(1,24,42) -5.39025011E-10                    1_GWF-(1,17,40)
        491         13         59  3.43742262E-08                    1_GWF-(1,24,42) -5.36123120E-10                    1_GWF-(1,17,40)
        492         13         60  3.40867903E-08                    1_GWF-(1,24,42) -5.33243422E-10                    1_GWF-(1,17,40)
        493         13         61  3.33280357E-08                    1_GWF-(1,24,42) -5.30425949E-10                    1_GWF-(1,17,40)
        494         13         62  3.29291940E-08                    1_GWF-(1,24,42) -5.27640223E-10                    1_GWF-(1,17,40)
        495         13         63  3.22975139E-08                    1_GWF-(1,24,42) -5.24906127E-10                    1_GWF-(1,17,40)
        496         13         64  3.18573714E-08                    1_GWF-(1,24,42) -5.22207423E-10                    1_GWF-(1,17,40)
        497         13         65  3.13011594E-08                    1_GWF-(1,24,42) -5.19554092E-10                    1_GWF-(1,17,40)
        498         13         66  3.08520943E-08                    1_GWF-(1,24,42) -5.16937050E-10                    1_GWF-(1,17,40)
        499         13         67  3.03456280E-08                    1_GWF-(1,24,42) -5.14361288E-10                    1_GWF-(1,17,40)
        500         13         68  2.99026369E-08                    1_GWF-(1,24,42) -5.11821435E-10                    1_GWF-(1,17,40)
        501         13         69  2.94324142E-08                    1_GWF-(1,24,42) -5.09319902E-10                    1_GWF-(1,17,40)
        502         13         70  2.90022984E-08                    1_GWF-(1,24,42) -5.06853308E-10                    1_GWF-(1,17,40)
        503         13         71  2.85607719E-08                    1_GWF-(1,24,42) -5.04422707E-10                    1_GWF-(1,17,40)
        504         13         72  2.81463930E-08                    1_GWF-(1,24,42) -5.02025822E-10                    1_GWF-(1,17,40)
        505         13         73  2.77290175E-08                    1_GWF-(1,24,42) -4.99662981E-10                    1_GWF-(1,17,40)
[...]
       1052         14        392  1.92209623E-07                    1_GWF-(1,24,42)  2.17286100E-10                    1_GWF-(1,17,43)
       1053         14        393 -9.96021932E-08                    1_GWF-(1,24,42)  2.18279847E-10                    1_GWF-(1,17,43)
       1054         14        394  2.26628428E-07                    1_GWF-(1,24,42)  2.15956275E-10                    1_GWF-(1,17,43)
       1055         14        395 -1.42138847E-07                    1_GWF-(1,24,42)  2.17367867E-10                    1_GWF-(1,17,43)
       1056         14        396 -3.62211632E-08                    1_GWF-(1,24,42)  2.17637242E-10                    1_GWF-(1,17,43)
       1057         14        397  1.57378670E-07                    1_GWF-(1,24,42)  2.16101261E-10                    1_GWF-(1,17,43)
       1058         14        398  2.88946814E-07                    1_GWF-(1,24,42)  2.13202563E-10                    1_GWF-(1,17,43)
       1059         14        399 -2.25084521E-07                    1_GWF-(1,24,42)  2.15387662E-10                    1_GWF-(1,17,43)
       1060         14        400  3.62945113E-07                    1_GWF-(1,24,42)  2.11785275E-10                    1_GWF-(1,17,43)
       1061         14        401 -3.18172656E-07                    1_GWF-(1,24,42)  2.14854170E-10                    1_GWF-(1,17,43)
       1062         14        402 -2.29188995E-07                    1_GWF-(1,24,42)  2.25718616E-10                     1_GWF-(1,8,47)
       1063         14        403  3.56583670E-07                    1_GWF-(1,24,42)  2.13535597E-10                    1_GWF-(1,17,43)
       1064         14        404  5.07639021E-07                    1_GWF-(1,24,42)  2.08627084E-10                    1_GWF-(1,17,43)
       1065         14        405 -5.16597412E-07                    1_GWF-(1,24,42)  2.15459850E-10                     1_GWF-(1,8,47)
       1066         14        406  6.76349380E-07                    1_GWF-(1,24,42)  2.07037617E-10                    1_GWF-(1,17,43)
       1067         14        407 -7.40857209E-07                    1_GWF-(1,24,42)  2.21393201E-10                     1_GWF-(1,8,47)
       1068         14        408  8.99573770E-07                    1_GWF-(1,24,42)  2.05475998E-10                    1_GWF-(1,17,43)
       1069         14        409 -1.04273720E-06                    1_GWF-(1,24,42)  2.30537643E-10                     1_GWF-(1,8,47)
       1070         14        410  1.17246651E-06                    1_GWF-(1,24,42)  2.04202941E-10                    1_GWF-(1,17,43)
       1071         14        411  1.61175333E-06                    1_GWF-(1,24,42)  1.89197494E-10                    1_GWF-(1,17,43)
       1072         14        412  3.05630914E-06                    1_GWF-(1,24,42)  1.65164208E-10                    1_GWF-(1,15,39)
       1073         14        413  1.06149107E-05                    1_GWF-(1,24,42) -3.37053776E-10                     1_GWF-(1,8,47)
       1074         14        414  8.55346703E-06                    1_GWF-(1,24,42) -6.27056427E-10                     1_GWF-(1,8,47)
       1075         14        415  2.02755393E-06                    1_GWF-(1,24,42) -6.92589831E-10                     1_GWF-(1,8,47)
       1076         14        416  3.56540555E-07                    1_GWF-(1,21,36) -6.98937242E-10                     1_GWF-(1,8,47)
       1077         14        417  1.25601730E-07                    1_GWF-(1,21,36) -6.93324009E-10                     1_GWF-(1,8,47)
       1078         14        418 -9.15131658E-08                    1_GWF-(1,24,42) -6.85559842E-10                     1_GWF-(1,8,47)
       1079         14        419 -1.00037580E-07                    1_GWF-(1,24,42) -6.77606086E-10                     1_GWF-(1,8,47)
       1080         14        420 -9.76203287E-08                    1_GWF-(1,24,42) -6.69848566E-10                     1_GWF-(1,8,47)
       1081         14        421 -9.32462945E-08                    1_GWF-(1,24,42) -6.62352689E-10                     1_GWF-(1,8,47)
       1082         14        422 -8.87491173E-08                    1_GWF-(1,24,42) -6.55118051E-10                     1_GWF-(1,8,47)
       1083         14        423 -8.44906463E-08                    1_GWF-(1,24,42) -6.48131392E-10                     1_GWF-(1,8,47)
       1084         14        424 -8.05236628E-08                    1_GWF-(1,24,42) -6.41377807E-10                     1_GWF-(1,8,47)
       1085         14        425 -7.68366726E-08                    1_GWF-(1,24,42) -6.34843078E-10                     1_GWF-(1,8,47)
       1086         14        426 -7.34065987E-08                    1_GWF-(1,24,42) -6.28514089E-10                     1_GWF-(1,8,47)
       1087         14        427 -7.02101375E-08                    1_GWF-(1,24,42) -6.22378810E-10                     1_GWF-(1,8,47)
       1088         14        428 -6.72260167E-08                    1_GWF-(1,24,42) -6.16426208E-10                     1_GWF-(1,8,47)
       1089         14        429 -6.44352359E-08                    1_GWF-(1,24,42) -6.10646147E-10                     1_GWF-(1,8,47)
       1090         14        430 -6.18208837E-08                    1_GWF-(1,24,42) -6.05029295E-10                     1_GWF-(1,8,47)
       1091         14        431 -5.93678891E-08                    1_GWF-(1,24,42) -5.99567041E-10                     1_GWF-(1,8,47)
       1092         14        432 -5.70627896E-08                    1_GWF-(1,24,42) -5.94251426E-10                     1_GWF-(1,8,47)
       1093         14        433 -5.48935278E-08                    1_GWF-(1,24,42) -5.89075079E-10                     1_GWF-(1,8,47)
       1094         14        434 -5.28492768E-08                    1_GWF-(1,24,42) -5.84031160E-10                     1_GWF-(1,8,47)
       1095         14        435 -5.09202901E-08                    1_GWF-(1,24,42) -5.79113311E-10                     1_GWF-(1,8,47)
       1096         14        436 -4.90977732E-08                    1_GWF-(1,24,42) -5.74315614E-10                     1_GWF-(1,8,47)
       1097         14        437 -4.73737718E-08                    1_GWF-(1,24,42) -5.69632550E-10                     1_GWF-(1,8,47)
       1098         14        438 -4.57410764E-08                    1_GWF-(1,24,42) -5.65058965E-10                     1_GWF-(1,8,47)
       1099         14        439 -4.41931387E-08                    1_GWF-(1,24,42) -5.60590038E-10                     1_GWF-(1,8,47)
       1100         14        440 -4.27239987E-08                    1_GWF-(1,24,42) -5.56221257E-10                     1_GWF-(1,8,47)
       1101         14        441 -4.13282221E-08                    1_GWF-(1,24,42) -5.51948388E-10                     1_GWF-(1,8,47)
       1102         14        442 -4.00008440E-08                    1_GWF-(1,24,42) -5.47767457E-10                     1_GWF-(1,8,47)
       1103         14        443 -3.87373211E-08                    1_GWF-(1,24,42) -5.43674728E-10                     1_GWF-(1,8,47)
       1104         14        444 -3.75334882E-08                    1_GWF-(1,24,42) -5.39666687E-10                     1_GWF-(1,8,47)
       1105         14        445 -3.63855208E-08                    1_GWF-(1,24,42) -5.35740019E-10                     1_GWF-(1,8,47)
       1106         14        446 -3.52899018E-08                    1_GWF-(1,24,42) -5.31891601E-10                     1_GWF-(1,8,47)
       1107         14        447 -3.42433917E-08                    1_GWF-(1,24,42) -5.28118483E-10                     1_GWF-(1,8,47)
       1108         14        448 -3.32430022E-08                    1_GWF-(1,24,42) -5.24417877E-10                     1_GWF-(1,8,47)
       1109         14        449 -3.22859733E-08                    1_GWF-(1,24,42) -5.20787146E-10                     1_GWF-(1,8,47)
       1110         14        450 -3.13697520E-08                    1_GWF-(1,24,42) -5.17223792E-10                     1_GWF-(1,8,47)
       1111         14        451 -3.04919738E-08                    1_GWF-(1,24,42) -5.13725448E-10                     1_GWF-(1,8,47)
       1112         14        452 -2.96504460E-08                    1_GWF-(1,24,42) -5.10289871E-10                     1_GWF-(1,8,47)
       1113         14        453 -2.88431326E-08                    1_GWF-(1,24,42) -5.06914929E-10                     1_GWF-(1,8,47)
       1114         14        454 -2.80681413E-08                    1_GWF-(1,24,42) -5.03598597E-10                     1_GWF-(1,8,47)
       1115         14        455 -2.73237106E-08                    1_GWF-(1,24,42) -5.00338951E-10                     1_GWF-(1,8,47)
       1116         14        456 -2.66081998E-08                    1_GWF-(1,24,42) -4.97134160E-10                     1_GWF-(1,8,47)
       1117         14        457 -2.59200783E-08                    1_GWF-(1,24,42) -4.93982479E-10                     1_GWF-(1,8,47)
       1118         14        458 -2.52579171E-08                    1_GWF-(1,24,42) -4.90882248E-10                     1_GWF-(1,8,47)
       1119         14        459 -2.46203808E-08                    1_GWF-(1,24,42) -4.87831881E-10                     1_GWF-(1,8,47)
       1120         14        460 -2.40062201E-08                    1_GWF-(1,24,42) -4.84829869E-10                     1_GWF-(1,8,47)
       1121         14        461 -2.34142649E-08                    1_GWF-(1,24,42) -4.81874768E-10                     1_GWF-(1,8,47)
       1122         14        462 -2.28434187E-08                    1_GWF-(1,24,42) -4.78965199E-10                     1_GWF-(1,8,47)
       1123         14        463 -2.22926529E-08                    1_GWF-(1,24,42) -4.76099846E-10                     1_GWF-(1,8,47)
       1124         14        464 -2.17610015E-08                    1_GWF-(1,24,42) -4.73277450E-10                     1_GWF-(1,8,47)
       1125         14        465 -2.12475570E-08                    1_GWF-(1,24,42) -4.70496805E-10                     1_GWF-(1,8,47)
       1126         14        466 -2.07514655E-08                    1_GWF-(1,24,42) -4.67756756E-10                     1_GWF-(1,8,47)
       1127         14        467 -2.02719236E-08                    1_GWF-(1,24,42) -4.65056200E-10                     1_GWF-(1,8,47)
       1128         14        468 -1.98081744E-08                    1_GWF-(1,24,42) -4.62394077E-10                     1_GWF-(1,8,47)
       1129         14        469 -1.93595043E-08                    1_GWF-(1,24,42) -4.59769371E-10                     1_GWF-(1,8,47)
       1130         14        470 -1.89252401E-08                    1_GWF-(1,24,42) -4.57181110E-10                     1_GWF-(1,8,47)
       1131         14        471 -1.85047463E-08                    1_GWF-(1,24,42) -4.54628358E-10                     1_GWF-(1,8,47)
       1132         14        472 -1.80974225E-08                    1_GWF-(1,24,42) -4.52110218E-10                     1_GWF-(1,8,47)
       1133         14        473 -1.77027010E-08                    1_GWF-(1,24,42) -4.49625830E-10                     1_GWF-(1,8,47)
       1134         14        474 -1.73200449E-08                    1_GWF-(1,24,42) -4.47174364E-10                     1_GWF-(1,8,47)
       1135         14        475 -1.69489457E-08                    1_GWF-(1,24,42) -4.44755026E-10                     1_GWF-(1,8,47)
       1136         14        476 -1.65889221E-08                    1_GWF-(1,24,42) -4.42367050E-10                     1_GWF-(1,8,47)
       1137         14        477 -1.62395176E-08                    1_GWF-(1,24,42) -4.40009702E-10                     1_GWF-(1,8,47)
       1138         14        478 -1.59002994E-08                    1_GWF-(1,24,42) -4.37682272E-10                     1_GWF-(1,8,47)
       1139         14        479 -1.55708568E-08                    1_GWF-(1,24,42) -4.35384079E-10                     1_GWF-(1,8,47)
       1140         14        480 -1.52507998E-08                    1_GWF-(1,24,42) -4.33114468E-10                     1_GWF-(1,8,47)
       1141         14        481 -1.49397580E-08                    1_GWF-(1,24,42) -4.30872806E-10                     1_GWF-(1,8,47)
       1142         14        482 -1.46373793E-08                    1_GWF-(1,24,42) -4.28658484E-10                     1_GWF-(1,8,47)
       1143         14        483 -1.43433288E-08                    1_GWF-(1,24,42) -4.26470916E-10                     1_GWF-(1,8,47)
       1144         14        484 -1.40572879E-08                    1_GWF-(1,24,42) -4.24309537E-10                     1_GWF-(1,8,47)
       1145         14        485 -1.37789532E-08                    1_GWF-(1,24,42) -4.22173800E-10                     1_GWF-(1,8,47)
       1146         14        486 -1.35080359E-08                    1_GWF-(1,24,42) -4.20063180E-10                     1_GWF-(1,8,47)
       1147         14        487 -1.32442607E-08                    1_GWF-(1,24,42) -4.17977170E-10                     1_GWF-(1,8,47)
       1148         14        488 -1.29873651E-08                    1_GWF-(1,24,42) -4.15915279E-10                     1_GWF-(1,8,47)
       1149         14        489 -1.27370990E-08                    1_GWF-(1,24,42) -4.13877035E-10                     1_GWF-(1,8,47)
       1150         14        490 -1.24932234E-08                    1_GWF-(1,24,42) -4.11861981E-10                     1_GWF-(1,8,47)
       1151         14        491 -1.22555104E-08                    1_GWF-(1,24,42) -4.09869677E-10                     1_GWF-(1,8,47)
       1152         14        492 -1.20237423E-08                    1_GWF-(1,24,42) -4.07899698E-10                     1_GWF-(1,8,47)
       1153         14        493 -1.17977111E-08                    1_GWF-(1,24,42) -4.05951631E-10                     1_GWF-(1,8,47)
       1154         14        494 -1.15772181E-08                    1_GWF-(1,24,42) -4.04025079E-10                     1_GWF-(1,8,47)
       1155         14        495 -1.13620733E-08                    1_GWF-(1,24,42) -4.02119658E-10                     1_GWF-(1,8,47)
       1156         14        496 -1.11520948E-08                    1_GWF-(1,24,42) -4.00234997E-10                     1_GWF-(1,8,47)
       1157         14        497 -1.09471087E-08                    1_GWF-(1,24,42) -3.98370737E-10                     1_GWF-(1,8,47)
       1158         14        498 -1.07469487E-08                    1_GWF-(1,24,42) -3.96526530E-10                     1_GWF-(1,8,47)
       1159         14        499 -1.05514554E-08                    1_GWF-(1,24,42) -3.94702040E-10                     1_GWF-(1,8,47)
       1160         14        500 -1.03604760E-08                    1_GWF-(1,24,42) -3.92896943E-10                     1_GWF-(1,8,47)
       1161         15          1  3.70425948E-07                    1_GWF-(1,23,43)  3.77030446E-09                    1_GWF-(1,24,42)
       1162         15          2  1.67754142E-07                    1_GWF-(1,23,43)  2.28595652E-09                    1_GWF-(1,24,42)
       1163         15          3  1.15262458E-07                    1_GWF-(1,23,43)  1.00638592E-09                    1_GWF-(1,24,42)
       1164         15          4  7.52262035E-08                    1_GWF-(1,23,43)  4.35142811E-10                    1_GWF-(1,23,43)
       1165         15          5 -1.65294685E-08                    1_GWF-(1,24,42)  4.46411752E-10                    1_GWF-(1,23,43)
       1166         15          6 -2.96304744E-09                    1_GWF-(1,23,43)  4.44911894E-10                    1_GWF-(1,23,43)
       1167         15          7 -4.73530053E-09                    1_GWF-(1,23,43)  4.42171465E-10                    1_GWF-(1,23,43)
       1168         15          8 -5.21638054E-09                    1_GWF-(1,23,43)  4.39102610E-10                    1_GWF-(1,23,43)
       1169         15          9 -5.45625063E-09                    1_GWF-(1,23,43)  4.35877479E-10                    1_GWF-(1,23,43)
       1170         15         10 -7.95476055E-10                    1_GWF-(1,23,43)  4.35401371E-10                    1_GWF-(1,23,43)
       1171         16          1  1.49850162E-07                    1_GWF-(1,22,44)  4.08888441E-09                    1_GWF-(1,23,43)
       1172         16          2 -8.87175181E-08                    1_GWF-(1,23,43)  2.65222483E-09                    1_GWF-(1,23,43)
       1173         16          3 -7.78416807E-08                    1_GWF-(1,23,43)  1.39187427E-09                    1_GWF-(1,23,43)
       1174         16          4 -6.39549009E-08                    1_GWF-(1,23,43)  5.14160926E-10                    1_GWF-(1,22,44)
       1175         16          5 -2.59950450E-08                    1_GWF-(1,23,43)  5.44855255E-10                    1_GWF-(1,22,44)
       1176         16          6 -2.58364618E-09                    1_GWF-(1,23,43)  5.45842179E-10                    1_GWF-(1,22,44)
       1177         16          7 -1.36313011E-09                    1_GWF-(1,22,44)  5.44335125E-10                    1_GWF-(1,22,44)
       1178         16          8 -1.54151247E-09                    1_GWF-(1,22,44)  5.42356309E-10                    1_GWF-(1,22,44)
       1179         16          9 -1.61174177E-09                    1_GWF-(1,22,44)  5.40214958E-10                    1_GWF-(1,22,44)
       1180         16         10 -1.65246348E-09                    1_GWF-(1,22,44)  5.37994199E-10                    1_GWF-(1,22,44)
       1181         16         11 -2.64761215E-10                    1_GWF-(1,22,44)  5.37628331E-10                    1_GWF-(1,22,44)
       1182         17          1 -8.09113915E-09                    1_GWF-(1,22,44)  1.40449210E-09                    1_GWF-(1,23,43)
       1183         17          2 -1.33441021E-08                    1_GWF-(1,22,44)  1.30557789E-09                    1_GWF-(1,23,43)
       1184         17          3 -2.00385542E-08                    1_GWF-(1,22,44)  1.15834863E-09                    1_GWF-(1,23,43)
       1185         17          4 -2.96728202E-08                    1_GWF-(1,22,44)  9.41971212E-10                    1_GWF-(1,23,43)
       1186         17          5 -4.52779730E-08                    1_GWF-(1,22,44)  6.13423466E-10                    1_GWF-(1,23,43)
       1187         17          6 -6.90423652E-08                    1_GWF-(1,22,44)  2.08741751E-10                    1_GWF-(1,22,44)
       1188         17          7 -6.74825010E-08                    1_GWF-(1,22,44) -3.74121993E-10                    1_GWF-(1,23,43)
       1189         17          8 -6.06977947E-09                    1_GWF-(1,22,44) -4.16847796E-10                    1_GWF-(1,23,43)
       1190         17          9 -1.34838818E-09                    1_GWF-(1,22,44) -4.25357296E-10                    1_GWF-(1,23,43)
       1191         17         10 -4.11063460E-10                    1_GWF-(1,22,44) -4.27058748E-10                    1_GWF-(1,23,43)
       1192         18          1 -6.41808776E-10                    1_GWF-(1,22,44)  1.84709912E-10                    1_GWF-(1,22,44)
 --------------------------------------------------------------------------------------------------------------------------------------



 MEMORY MANAGER TOTAL STORAGE BY DATA TYPE, IN MEGABYTES
 -------------------------------
                    ALLOCATED   
 DATA TYPE           MEMORY     
 -------------------------------
 Character        7.45500000E-03
 Logical          4.80000000E-05
 Integer          3.4826040     
 Real             5.2509360     
 -------------------------------
 Total            8.7410430     
 Virtual          0.0000000     
 -------------------------------


 
 Run end date and time (yyyy/mm/dd hh:mm:ss): 2025/05/21  8:13:52
 Elapsed run time:  0.303 Seconds
 Normal termination of simulation.
