                                   MODFLOW 6
                U.S. GEOLOGICAL SURVEY MODULAR HYDROLOGIC MODEL
                            VERSION 6.6.2 05/12/2025

        MODFLOW 6 compiled May 16 2025 14:42:40 with GCC version 15.1.0

This software has been approved for release by the U.S. Geological 
Survey (USGS). Although the software has been subjected to rigorous 
review, the USGS reserves the right to update the software as needed 
pursuant to further analysis and review. No warranty, expressed or 
implied, is made by the USGS or the U.S. Government as to the 
functionality of the software and related material nor shall the 
fact of release constitute any such warranty. Furthermore, the 
software is released on condition that neither the USGS nor the U.S. 
Government shall be held liable for any damages resulting from its 
authorized or unauthorized use. Also refer to the USGS Water 
Resources Software User Rights Notice for complete use, copyright, 
and distribution information.


As a work of the United States Government, this USGS product is 
in the public domain within the United States. You can copy, 
modify, distribute, and perform the work, even for commercial 
purposes, all without asking permission. Additionally, USGS 
waives copyright and related rights in the work worldwide 
through CC0 1.0 Universal Public Domain Dedication 
(https://creativecommons.org/publicdomain/zero/1.0/).

The following GNU Lesser General Public License (LGPL) libraries
are used in this USGS product:

    SPARSKIT version 2.0
      ilut, luson, and qsplit 
      (https://www-users.cse.umn.edu/~saad/software/SPARSKIT/)

    RCM - Reverse Cuthill McKee Ordering
      (https://people.math.sc.edu/Burkardt/f_src/rcm/rcm.html)

    BLAS - Basic Linear Algebra Subprograms Level 1
      (https://people.math.sc.edu/Burkardt/f_src/blas1_d/blas1_d.html)

    SPARSEKIT - Sparse Matrix Utility Package
      amux, dperm, dvperm, rperm, and cperm
      (https://people.sc.fsu.edu/~jburkardt/f77_src/sparsekit/sparsekit.html)

The following BSD-3 License libraries are used in this USGS product:

    Modern Fortran DAG Library
      Copyright (c) 2018, Jacob Williams
      All rights reserved.
      (https://github.com/jacobwilliams/daglib)

MODFLOW 6 compiler options: -fdiagnostics-color=always -cpp -I
src\libmf6_external.a.p -I src\libmf6core.a.p -I src -I ..\src -iprefix
D:/bld/modflow6_1747406358772/_h_env/Library/bin/../lib/gcc/x86_64-w64-mingw32
/15.1.0/ -isysroot
D:/bld/modflow6_1747406358772/_h_env/Library/bin/../x86_64-w64-mingw32/sysroot
-U_REENTRANT -D _FILE_OFFSET_BITS=64 -D _WIN32 -mtune=generic -march=x86-64
-O3 -Wall -Wpedantic -Wcharacter-truncation -Wno-unused-dummy-argument
-Wno-intrinsic-shadow -Wno-maybe-uninitialized -Wno-uninitialized -std=f2018
-fall-intrinsics -ffpe-summary=overflow -ffpe-trap=overflow,zero,invalid
-idirafter D:/bld/modflow6_1747406358772/_h_env/Library/include -J
src\libmf6core.a.p

System command used to initiate simulation:
C:\Users\gross.DESKTOP-AIRQM2M\anaconda3\envs\mf6pro\Library\bin\mf6.exe

MODFLOW was compiled using uniform precision.

Real Variables
  KIND: 8
  TINY (smallest non-zero value):    2.225074-308
  HUGE (largest value):    1.797693+308
  PRECISION: 15
  SIZE IN BITS: 64

Integer Variables
  KIND: 4
  HUGE (largest value): 2147483647
  SIZE IN BITS: 32

Long Integer Variables
  KIND: 8
  HUGE (largest value): 9223372036854775807
  SIZE IN BITS: 64

Logical Variables
  KIND: 4
  SIZE IN BITS: 32


 OPENED mfsim.nam
 FILE TYPE:NAM6               UNIT 1001   STATUS:OLD                 
 FORMAT:FORMATTED              ACCESS:SEQUENTIAL          
 ACTION:READ                

 # File generated by Flopy version 3.9.1 on 07/28/2025 at 13:31:40.

 OPENED ex-gwf-csub-p04.tdis
 FILE TYPE:TDIS6              UNIT 1002   STATUS:OLD                 
 FORMAT:FORMATTED              ACCESS:SEQUENTIAL          
 ACTION:READ                

 # File generated by Flopy version 3.9.1 on 07/28/2025 at 13:31:40.

 OPENED ex-gwf-csub-p04.nam
 FILE TYPE:GWF6               UNIT 1003   STATUS:OLD                 
 FORMAT:FORMATTED              ACCESS:SEQUENTIAL          
 ACTION:READ                

 # File generated by Flopy version 3.9.1 on 07/28/2025 at 13:31:40.

 OPENED ex-gwf-csub-p04.dis
 FILE TYPE:DIS6               UNIT 1004   STATUS:OLD                 
 FORMAT:FORMATTED              ACCESS:SEQUENTIAL          
 ACTION:READ                

 # File generated by Flopy version 3.9.1 on 07/28/2025 at 13:31:40.

 OPENED ex-gwf-csub-p04.npf
 FILE TYPE:NPF6               UNIT 1005   STATUS:OLD                 
 FORMAT:FORMATTED              ACCESS:SEQUENTIAL          
 ACTION:READ                

 # File generated by Flopy version 3.9.1 on 07/28/2025 at 13:31:40.

 OPENED ex-gwf-csub-p04.sto
 FILE TYPE:STO6               UNIT 1006   STATUS:OLD                 
 FORMAT:FORMATTED              ACCESS:SEQUENTIAL          
 ACTION:READ                

 # File generated by Flopy version 3.9.1 on 07/28/2025 at 13:31:40.

 OPENED ex-gwf-csub-p04.ic
 FILE TYPE:IC6                UNIT 1007   STATUS:OLD                 
 FORMAT:FORMATTED              ACCESS:SEQUENTIAL          
 ACTION:READ                

 # File generated by Flopy version 3.9.1 on 07/28/2025 at 13:31:40.

 OPENED ex-gwf-csub-p04.oc
 FILE TYPE:OC6       UNIT 1008   STATUS:OLD                 
 FORMAT:FORMATTED              ACCESS:SEQUENTIAL          
 ACTION:READ                


 OPENED ex-gwf-csub-p04.obs
 FILE TYPE:OBS6      UNIT 1009   STATUS:OLD                 
 FORMAT:FORMATTED              ACCESS:SEQUENTIAL          
 ACTION:READ                


 OPENED ex-gwf-csub-p04.wel
 FILE TYPE:WEL6               UNIT 1010   STATUS:OLD                 
 FORMAT:FORMATTED              ACCESS:SEQUENTIAL          
 ACTION:READ                

 # File generated by Flopy version 3.9.1 on 07/28/2025 at 13:31:40.

 OPENED ex-gwf-csub-p04.rch
 FILE TYPE:RCH6               UNIT 1012   STATUS:OLD                 
 FORMAT:FORMATTED              ACCESS:SEQUENTIAL          
 ACTION:READ                

 # File generated by Flopy version 3.9.1 on 07/28/2025 at 13:31:40.

 OPENED ex-gwf-csub-p04.chd
 FILE TYPE:CHD6               UNIT 1013   STATUS:OLD                 
 FORMAT:FORMATTED              ACCESS:SEQUENTIAL          
 ACTION:READ                

 # File generated by Flopy version 3.9.1 on 07/28/2025 at 13:31:40.

 OPENED ex-gwf-csub-p04.csub
 FILE TYPE:CSUB6     UNIT 1014   STATUS:OLD                 
 FORMAT:FORMATTED              ACCESS:SEQUENTIAL          
 ACTION:READ                


 READING SIMULATION OPTIONS
    MAXIMUM NUMBER OF ERRORS THAT WILL BE STORED IS 1000
 END OF SIMULATION OPTIONS

 READING SIMULATION TIMING

 TDIS -- TEMPORAL DISCRETIZATION PACKAGE,
 VERSION 1 : 11/13/2014 - INPUT READ FROM MEMPATH: __INPUT__/SIM/TDIS                                
 PROCESSING TDIS OPTIONS
    SIMULATION TIME UNIT IS DAYS
 END OF TDIS OPTIONS
 PROCESSING TDIS DIMENSIONS
    3 STRESS PERIOD(S) IN SIMULATION
 END OF TDIS DIMENSIONS

 PERLEN is zero for stress period 1. PERLEN must not be zero for transient periods.
 PROCESSING TDIS PERIODDATA


 STRESS PERIOD     LENGTH       TIME STEPS     MULTIPLIER FOR DELT
 ----------------------------------------------------------------------------
        1         0.000000          1                    1.000
        2         21915.00         60                    1.000
        3         21915.00         60                    1.000
 END OF TDIS PERIODDATA
 END OF SIMULATION TIMING

 READING SIMULATION MODELS
    GWF6 model 1 will be created
 END OF SIMULATION MODELS

 READING SIMULATION EXCHANGES
 END OF SIMULATION EXCHANGES

 READING SOLUTIONGROUP

 Creating solution: SLN_1           

 OPENED ex-gwf-csub-p04.ims
 FILE TYPE:IMS   UNIT 1016   STATUS:OLD                 
 FORMAT:FORMATTED              ACCESS:SEQUENTIAL          
 ACTION:READ                

 END OF SOLUTIONGROUP

PROCESSING MODEL CONNECTIONS

 IMS -- ITERATIVE MODEL SOLUTION PACKAGE, VERSION 6, 4/28/2017
         INPUT READ FROM UNIT 1016
 # File generated by Flopy version 3.9.1 on 07/28/2025 at 13:31:40.

 PROCESSING IMS OPTIONS
 END OF IMS OPTIONS

 PROCESSING IMS NONLINEAR
 END OF IMS NONLINEAR DATA
 ***UNDER-RELAXATION WILL NOT BE USED***


 PROCESSING LINEAR DATA
 END OF LINEAR DATA
 ***IMS LINEAR SOLVER WILL BE USED***

 IMSLINEAR -- UNSTRUCTURED LINEAR SOLUTION PACKAGE, VERSION 8, 04/28/2017
 An asymmetric matrix will be solved

 OUTER ITERATION CONVERGENCE CRITERION    (DVCLOSE) =    0.100000E-08
 MAXIMUM NUMBER OF OUTER ITERATIONS        (MXITER) = 100
 SOLVER PRINTOUT INDEX                     (IPRIMS) = 0
 NONLINEAR ITERATION METHOD            (NONLINMETH) = 0
 LINEAR SOLUTION METHOD                   (LINMETH) = 1

       SOLUTION BY THE BICONJUGATE-GRADIENT STABILIZED METHOD
 ------------------------------------------------------------------
 MAXIMUM OF 100 CALLS OF SOLUTION ROUTINE
 MAXIMUM OF 300 INTERNAL ITERATIONS PER CALL TO SOLUTION ROUTINE
 LINEAR ACCELERATION METHOD            = BCGS      
 MATRIX PRECONDITIONING TYPE           = MOD. INCOMPLETE LU  
 MATRIX SCALING APPROACH               = NO SCALING          
 MATRIX REORDERING APPROACH            = ORIGINAL ORDERING        
 NUMBER OF ORTHOGONALIZATIONS          = 0
 HEAD CHANGE CRITERION FOR CLOSURE     =    0.10000E-08
 RESIDUAL CHANGE CRITERION FOR CLOSURE =    0.10000E-05
 RESIDUAL CONVERGENCE OPTION           = 0
 RESIDUAL CONVERGENCE NORM             = INFINITY NORM   
 RELAXATION FACTOR                     =    0.97000E+00




    Solving:  Stress period:     1    Time step:     1

1
 STRESS PERIOD NO. 1, LENGTH =   0.000000    
 ------------------------------------------
 NUMBER OF TIME STEPS = 1
 MULTIPLIER FOR DELT =     1.000
 INITIAL TIME STEP SIZE =   0.000000    



 PSEUDO-TRANSIENT CONTINUATION WILL BE APPLIED TO MODEL 1 ("EX-GWF-CSUB-P04") DURING THIS TIME STEP

    Solving:  Stress period:     2    Time step:     1

1
 STRESS PERIOD NO. 2, LENGTH =   21915.00    
 ------------------------------------------
 NUMBER OF TIME STEPS = 60
 MULTIPLIER FOR DELT =     1.000
 INITIAL TIME STEP SIZE =   365.2500    

    Solving:  Stress period:     2    Time step:     2


    Solving:  Stress period:     2    Time step:     3


    Solving:  Stress period:     2    Time step:     4


    Solving:  Stress period:     2    Time step:     5


    Solving:  Stress period:     2    Time step:     6


    Solving:  Stress period:     2    Time step:     7


    Solving:  Stress period:     2    Time step:     8


    Solving:  Stress period:     2    Time step:     9


    Solving:  Stress period:     2    Time step:    10


    Solving:  Stress period:     2    Time step:    11


    Solving:  Stress period:     2    Time step:    12


    Solving:  Stress period:     2    Time step:    13


    Solving:  Stress period:     2    Time step:    14


    Solving:  Stress period:     2    Time step:    15


    Solving:  Stress period:     2    Time step:    16


    Solving:  Stress period:     2    Time step:    17


    Solving:  Stress period:     2    Time step:    18


    Solving:  Stress period:     2    Time step:    19


    Solving:  Stress period:     2    Time step:    20


    Solving:  Stress period:     2    Time step:    21


    Solving:  Stress period:     2    Time step:    22


    Solving:  Stress period:     2    Time step:    23


    Solving:  Stress period:     2    Time step:    24


    Solving:  Stress period:     2    Time step:    25


    Solving:  Stress period:     2    Time step:    26


    Solving:  Stress period:     2    Time step:    27


    Solving:  Stress period:     2    Time step:    28


    Solving:  Stress period:     2    Time step:    29


    Solving:  Stress period:     2    Time step:    30


    Solving:  Stress period:     2    Time step:    31


    Solving:  Stress period:     2    Time step:    32
