                                   MODFLOW 6
                U.S. GEOLOGICAL SURVEY MODULAR HYDROLOGIC MODEL
                             TRANSPORT MODEL (GWT)
                            VERSION 6.6.1 02/10/2025

   MODFLOW 6 compiled Feb 14 2025 13:40:10 with Intel(R) Fortran Intel(R) 64
   Compiler Classic for applications running on Intel(R) 64, Version 2021.7.0
                             Build 20220726_000000

This software has been approved for release by the U.S. Geological 
Survey (USGS). Although the software has been subjected to rigorous 
review, the USGS reserves the right to update the software as needed 
pursuant to further analysis and review. No warranty, expressed or 
implied, is made by the USGS or the U.S. Government as to the 
functionality of the software and related material nor shall the 
fact of release constitute any such warranty. Furthermore, the 
software is released on condition that neither the USGS nor the U.S. 
Government shall be held liable for any damages resulting from its 
authorized or unauthorized use. Also refer to the USGS Water 
Resources Software User Rights Notice for complete use, copyright, 
and distribution information.


As a work of the United States Government, this USGS product is 
in the public domain within the United States. You can copy, 
modify, distribute, and perform the work, even for commercial 
purposes, all without asking permission. Additionally, USGS 
waives copyright and related rights in the work worldwide 
through CC0 1.0 Universal Public Domain Dedication 
(https://creativecommons.org/publicdomain/zero/1.0/).

The following GNU Lesser General Public License (LGPL) libraries
are used in this USGS product:

    SPARSKIT version 2.0
      ilut, luson, and qsplit 
      (https://www-users.cse.umn.edu/~saad/software/SPARSKIT/)

    RCM - Reverse Cuthill McKee Ordering
      (https://people.math.sc.edu/Burkardt/f_src/rcm/rcm.html)

    BLAS - Basic Linear Algebra Subprograms Level 1
      (https://people.math.sc.edu/Burkardt/f_src/blas1_d/blas1_d.html)

    SPARSEKIT - Sparse Matrix Utility Package
      amux, dperm, dvperm, rperm, and cperm
      (https://people.sc.fsu.edu/~jburkardt/f77_src/sparsekit/sparsekit.html)

The following BSD-3 License libraries are used in this USGS product:

    Modern Fortran DAG Library
      Copyright (c) 2018, Jacob Williams
      All rights reserved.
      (https://github.com/jacobwilliams/daglib)

MODFLOW 6 compiler options: /O2 /heap-arrays:0 /fpe:0 /traceback /nologo /fpp
/c /module:win64\mod_mf6\ /object:win64\obj_mf6\

System command used to initiate simulation:
C:\Users\gross.DESKTOP-AIRQM2M\anaconda3\Scripts\mf6.exe

MODFLOW was compiled using uniform precision.

Real Variables
  KIND: 8
  TINY (smallest non-zero value):    2.225074-308
  HUGE (largest value):    1.797693+308
  PRECISION: 15
  SIZE IN BITS: 64

Integer Variables
  KIND: 4
  HUGE (largest value): 2147483647
  SIZE IN BITS: 32

Long Integer Variables
  KIND: 8
  HUGE (largest value): 9223372036854775807
  SIZE IN BITS: 64

Logical Variables
  KIND: 4
  SIZE IN BITS: 32
 
 NAMEFILE OPTIONS:
    FLOWS WILL BE SAVED TO BUDGET FILE SPECIFIED IN OUTPUT CONTROL
 END NAMEFILE OPTIONS:

 DIS -- STRUCTURED GRID DISCRETIZATION PACKAGE, VERSION 2 : 3/27/2014 - INPUT READ FROM MEMPATH: __INPUT__/GWT-OUTER/DIS                           


 DSP-- DISPERSION PACKAGE, VERSION 1, 1/24/2018 INPUT READ FROM MEMPATH: __INPUT__/GWT-OUTER/DSP                           


 Setting Discretization Options
 End Setting Discretization Options

 Setting Discretization Dimensions
    NLAY = 4
    NROW = 61
    NCOL = 40
 End Setting Discretization Dimensions

 Setting Discretization Griddata
    DELR set from input file
    DELC set from input file
    TOP set from input file
    BOTM set from input file
    IDOMAIN set from input file
 End Setting Discretization Griddata


 The specified IDOMAIN results in a reduced number of cells.
 Number of user nodes: 9760
 Number of nodes in solution: 4720



 FMI -- FLOW MODEL INTERFACE,' VERSION 2, 8/17/2023
  FLOWS PROVIDED BY A GWF MODEL IN THIS SIMULATION

 ADV-- ADVECTION PACKAGE, VERSION 1, 8/25/2017 INPUT READ FROM UNIT 1025


 # File generated by Flopy version 3.9.1 on 04/08/2025 at 11:24:36.
 PROCESSING ADVECTION OPTIONS
    ADVECTION WEIGHTING SCHEME HAS BEEN SET TO: UPSTREAM
 END OF ADVECTION OPTIONS
 Setting DSP Options
    XT3D formulation [0=INACTIVE, 1=ACTIVE, 3=ACTIVE RHS] set to: 1
 End Setting DSP Options

 Setting DSP Griddata
    ALH set from input file
    ATH1 set from input file
    ATV set from input file
 End Setting DSP Griddata

    STRT set from input file

 MST -- MOBILE STORAGE AND TRANSFER PACKAGE, VERSION 1, 7/29/2020 INPUT READ FROM UNIT 1024


 # File generated by Flopy version 3.9.1 on 04/08/2025 at 11:24:36.
 PROCESSING MOBILE STORAGE AND TRANSFER OPTIONS
    LINEAR SORPTION IS ACTIVE. 
 END OF MOBILE STORAGE AND TRANSFER OPTIONS
 PROCESSING GRIDDATA

   MOBILE DOMAIN POROSITY =  0.3000000    

             BULK DENSITY =   1.700000    

 DISTRIBUTION COEFFICIENT =  0.1760000    
 END PROCESSING GRIDDATA

 SSM -- SOURCE-SINK MIXING PACKAGE, VERSION 1, 8/25/2017 INPUT READ FROM UNIT 1027


 # File generated by Flopy version 3.9.1 on 04/08/2025 at 11:24:36.
 PROCESSING SSM OPTIONS
    SSM FLOW INFORMATION WILL BE PRINTED TO LISTING FILE WHENEVER ICBCFL IS NOT ZERO.
 END OF SSM OPTIONS
 PROCESSING SOURCES
 AUX SOURCE DETECTED.
    USING AUX COLUMN 1 IN PACKAGE CHD-1
 END PROCESSING SOURCES
 OPTIONAL FILEINPUT BLOCK NOT FOUND.  CONTINUING.
      THE LAST TIME STEP WILL BE PRINTED
      THE LAST TIME STEP WILL BE PRINTED
 # File generated by Flopy version 3.9.1 on 04/08/2025 at 11:24:36.

 PROCESSING OC OPTIONS

    BUDGET INFORMATION WILL BE WRITTEN TO:
      UNIT NUMBER: 1053
      FILE NAME: gwt-outer.cbc

 OPENED gwt-outer.cbc
 FILE TYPE:DATA(BINARY)   UNIT 1053   STATUS:REPLACE             
 FORMAT:UNFORMATTED            ACCESS:STREAM              
 ACTION:READWRITE           

    CONCENTRATION INFORMATION WILL BE WRITTEN TO:
      UNIT NUMBER: 1054
      FILE NAME: gwt-outer.ucn

 OPENED gwt-outer.ucn
 FILE TYPE:DATA(BINARY)   UNIT 1054   STATUS:REPLACE             
 FORMAT:UNFORMATTED            ACCESS:STREAM              
 ACTION:READWRITE           

 END OF OC OPTIONS

start timestep kper="1" kstp="1" mode="normal"


 BEGIN READING OUTPUT CONTROL FOR STRESS PERIOD 1
      THE LAST TIME STEP WILL BE SAVED
      THE FOLLOWING STEPS WILL BE SAVED: 1 250 375 500 
      THE LAST TIME STEP WILL BE SAVED
      THE LAST TIME STEP WILL BE SAVED
      THE LAST TIME STEP WILL BE PRINTED
      THE LAST TIME STEP WILL BE PRINTED

 END READING OUTPUT CONTROL FOR STRESS PERIOD 1

 XT3D is active.



 CONCENTRATION WILL BE SAVED ON UNIT 1054 AT END OF TIME STEP    1, STRESS PERIOD    1

end timestep


start timestep kper="1" kstp="2" mode="normal"


end timestep


start timestep kper="1" kstp="3" mode="normal"


end timestep


start timestep kper="1" kstp="4" mode="normal"


end timestep


start timestep kper="1" kstp="5" mode="normal"


end timestep


start timestep kper="1" kstp="6" mode="normal"


end timestep


start timestep kper="1" kstp="7" mode="normal"


end timestep


start timestep kper="1" kstp="8" mode="normal"


end timestep


start timestep kper="1" kstp="9" mode="normal"


end timestep


start timestep kper="1" kstp="10" mode="normal"


end timestep


start timestep kper="1" kstp="11" mode="normal"


end timestep


start timestep kper="1" kstp="12" mode="normal"


end timestep


start timestep kper="1" kstp="13" mode="normal"


end timestep


start timestep kper="1" kstp="14" mode="normal"


end timestep


start timestep kper="1" kstp="15" mode="normal"


end timestep


start timestep kper="1" kstp="16" mode="normal"


end timestep


start timestep kper="1" kstp="17" mode="normal"


end timestep


start timestep kper="1" kstp="18" mode="normal"


end timestep


start timestep kper="1" kstp="19" mode="normal"


end timestep


start timestep kper="1" kstp="20" mode="normal"


end timestep


start timestep kper="1" kstp="21" mode="normal"


end timestep


start timestep kper="1" kstp="22" mode="normal"


end timestep


start timestep kper="1" kstp="23" mode="normal"


end timestep


start timestep kper="1" kstp="24" mode="normal"


end timestep


start timestep kper="1" kstp="25" mode="normal"


end timestep


start timestep kper="1" kstp="26" mode="normal"


end timestep


start timestep kper="1" kstp="27" mode="normal"


end timestep


start timestep kper="1" kstp="28" mode="normal"


end timestep


start timestep kper="1" kstp="29" mode="normal"


end timestep


start timestep kper="1" kstp="30" mode="normal"


end timestep


start timestep kper="1" kstp="31" mode="normal"


end timestep


start timestep kper="1" kstp="32" mode="normal"


end timestep


start timestep kper="1" kstp="33" mode="normal"


end timestep


start timestep kper="1" kstp="34" mode="normal"


end timestep


start timestep kper="1" kstp="35" mode="normal"


end timestep


start timestep kper="1" kstp="36" mode="normal"


end timestep


start timestep kper="1" kstp="37" mode="normal"


end timestep


start timestep kper="1" kstp="38" mode="normal"


end timestep


start timestep kper="1" kstp="39" mode="normal"


end timestep


start timestep kper="1" kstp="40" mode="normal"


end timestep


start timestep kper="1" kstp="41" mode="normal"


end timestep


start timestep kper="1" kstp="42" mode="normal"


end timestep


start timestep kper="1" kstp="43" mode="normal"


end timestep


start timestep kper="1" kstp="44" mode="normal"


end timestep


start timestep kper="1" kstp="45" mode="normal"


end timestep


start timestep kper="1" kstp="46" mode="normal"


end timestep


start timestep kper="1" kstp="47" mode="normal"


end timestep


start timestep kper="1" kstp="48" mode="normal"


end timestep


start timestep kper="1" kstp="49" mode="normal"


end timestep


start timestep kper="1" kstp="50" mode="normal"


end timestep


start timestep kper="1" kstp="51" mode="normal"


end timestep


start timestep kper="1" kstp="52" mode="normal"


end timestep


start timestep kper="1" kstp="53" mode="normal"


end timestep


start timestep kper="1" kstp="54" mode="normal"


end timestep


start timestep kper="1" kstp="55" mode="normal"


end timestep


start timestep kper="1" kstp="56" mode="normal"


end timestep


start timestep kper="1" kstp="57" mode="normal"


end timestep


start timestep kper="1" kstp="58" mode="normal"


end timestep


start timestep kper="1" kstp="59" mode="normal"


end timestep


start timestep kper="1" kstp="60" mode="normal"


end timestep


start timestep kper="1" kstp="61" mode="normal"


end timestep


start timestep kper="1" kstp="62" mode="normal"


end timestep


start timestep kper="1" kstp="63" mode="normal"


end timestep


start timestep kper="1" kstp="64" mode="normal"


end timestep


start timestep kper="1" kstp="65" mode="normal"


end timestep


start timestep kper="1" kstp="66" mode="normal"


end timestep


start timestep kper="1" kstp="67" mode="normal"


end timestep


start timestep kper="1" kstp="68" mode="normal"


end timestep


start timestep kper="1" kstp="69" mode="normal"


end timestep


start timestep kper="1" kstp="70" mode="normal"


end timestep


start timestep kper="1" kstp="71" mode="normal"


end timestep


start timestep kper="1" kstp="72" mode="normal"


end timestep


start timestep kper="1" kstp="73" mode="normal"


end timestep


start timestep kper="1" kstp="74" mode="normal"


end timestep


start timestep kper="1" kstp="75" mode="normal"


end timestep


start timestep kper="1" kstp="76" mode="normal"


end timestep


start timestep kper="1" kstp="77" mode="normal"


end timestep


start timestep kper="1" kstp="78" mode="normal"


end timestep


start timestep kper="1" kstp="79" mode="normal"


end timestep


start timestep kper="1" kstp="80" mode="normal"


end timestep


start timestep kper="1" kstp="81" mode="normal"


end timestep


start timestep kper="1" kstp="82" mode="normal"


end timestep


start timestep kper="1" kstp="83" mode="normal"


end timestep


start timestep kper="1" kstp="84" mode="normal"


end timestep


start timestep kper="1" kstp="85" mode="normal"


end timestep


start timestep kper="1" kstp="86" mode="normal"


end timestep


start timestep kper="1" kstp="87" mode="normal"


end timestep


start timestep kper="1" kstp="88" mode="normal"


end timestep


start timestep kper="1" kstp="89" mode="normal"


end timestep


start timestep kper="1" kstp="90" mode="normal"


end timestep


start timestep kper="1" kstp="91" mode="normal"


end timestep


start timestep kper="1" kstp="92" mode="normal"


end timestep


start timestep kper="1" kstp="93" mode="normal"


end timestep


start timestep kper="1" kstp="94" mode="normal"


end timestep


start timestep kper="1" kstp="95" mode="normal"


end timestep


start timestep kper="1" kstp="96" mode="normal"


end timestep


start timestep kper="1" kstp="97" mode="normal"


end timestep


start timestep kper="1" kstp="98" mode="normal"


end timestep


start timestep kper="1" kstp="99" mode="normal"


end timestep


start timestep kper="1" kstp="100" mode="normal"


end timestep


start timestep kper="1" kstp="101" mode="normal"


end timestep


start timestep kper="1" kstp="102" mode="normal"


end timestep


start timestep kper="1" kstp="103" mode="normal"


end timestep


start timestep kper="1" kstp="104" mode="normal"


end timestep


start timestep kper="1" kstp="105" mode="normal"


end timestep


start timestep kper="1" kstp="106" mode="normal"


end timestep


start timestep kper="1" kstp="107" mode="normal"


end timestep


start timestep kper="1" kstp="108" mode="normal"


end timestep


start timestep kper="1" kstp="109" mode="normal"


end timestep


start timestep kper="1" kstp="110" mode="normal"


end timestep


start timestep kper="1" kstp="111" mode="normal"


end timestep


start timestep kper="1" kstp="112" mode="normal"


end timestep


start timestep kper="1" kstp="113" mode="normal"


end timestep


start timestep kper="1" kstp="114" mode="normal"


end timestep


start timestep kper="1" kstp="115" mode="normal"


end timestep


start timestep kper="1" kstp="116" mode="normal"


end timestep


start timestep kper="1" kstp="117" mode="normal"


end timestep


start timestep kper="1" kstp="118" mode="normal"


end timestep


start timestep kper="1" kstp="119" mode="normal"


end timestep


start timestep kper="1" kstp="120" mode="normal"


end timestep


start timestep kper="1" kstp="121" mode="normal"


end timestep


start timestep kper="1" kstp="122" mode="normal"


end timestep


start timestep kper="1" kstp="123" mode="normal"


end timestep


start timestep kper="1" kstp="124" mode="normal"


end timestep


start timestep kper="1" kstp="125" mode="normal"


end timestep


start timestep kper="1" kstp="126" mode="normal"


end timestep


start timestep kper="1" kstp="127" mode="normal"


end timestep


start timestep kper="1" kstp="128" mode="normal"


end timestep


start timestep kper="1" kstp="129" mode="normal"


end timestep


start timestep kper="1" kstp="130" mode="normal"


end timestep


start timestep kper="1" kstp="131" mode="normal"


end timestep


start timestep kper="1" kstp="132" mode="normal"


end timestep


start timestep kper="1" kstp="133" mode="normal"


end timestep


start timestep kper="1" kstp="134" mode="normal"


end timestep


start timestep kper="1" kstp="135" mode="normal"


end timestep


start timestep kper="1" kstp="136" mode="normal"


end timestep


start timestep kper="1" kstp="137" mode="normal"


end timestep


start timestep kper="1" kstp="138" mode="normal"


end timestep


start timestep kper="1" kstp="139" mode="normal"


end timestep


start timestep kper="1" kstp="140" mode="normal"


end timestep


start timestep kper="1" kstp="141" mode="normal"


end timestep


start timestep kper="1" kstp="142" mode="normal"


end timestep


start timestep kper="1" kstp="143" mode="normal"


end timestep


start timestep kper="1" kstp="144" mode="normal"


end timestep


start timestep kper="1" kstp="145" mode="normal"


end timestep


start timestep kper="1" kstp="146" mode="normal"


end timestep


start timestep kper="1" kstp="147" mode="normal"


end timestep


start timestep kper="1" kstp="148" mode="normal"


end timestep


start timestep kper="1" kstp="149" mode="normal"


end timestep


start timestep kper="1" kstp="150" mode="normal"


end timestep


start timestep kper="1" kstp="151" mode="normal"


end timestep


start timestep kper="1" kstp="152" mode="normal"


end timestep


start timestep kper="1" kstp="153" mode="normal"


end timestep


start timestep kper="1" kstp="154" mode="normal"


end timestep


start timestep kper="1" kstp="155" mode="normal"


end timestep


start timestep kper="1" kstp="156" mode="normal"


end timestep


start timestep kper="1" kstp="157" mode="normal"


end timestep


start timestep kper="1" kstp="158" mode="normal"


end timestep


start timestep kper="1" kstp="159" mode="normal"


end timestep


start timestep kper="1" kstp="160" mode="normal"


end timestep


start timestep kper="1" kstp="161" mode="normal"


end timestep


start timestep kper="1" kstp="162" mode="normal"


end timestep


start timestep kper="1" kstp="163" mode="normal"


end timestep


start timestep kper="1" kstp="164" mode="normal"


end timestep


start timestep kper="1" kstp="165" mode="normal"


end timestep


start timestep kper="1" kstp="166" mode="normal"


end timestep


start timestep kper="1" kstp="167" mode="normal"


end timestep


start timestep kper="1" kstp="168" mode="normal"


end timestep


start timestep kper="1" kstp="169" mode="normal"


end timestep


start timestep kper="1" kstp="170" mode="normal"


end timestep


start timestep kper="1" kstp="171" mode="normal"


end timestep


start timestep kper="1" kstp="172" mode="normal"


end timestep


start timestep kper="1" kstp="173" mode="normal"


end timestep


start timestep kper="1" kstp="174" mode="normal"


end timestep


start timestep kper="1" kstp="175" mode="normal"


end timestep


start timestep kper="1" kstp="176" mode="normal"


end timestep


start timestep kper="1" kstp="177" mode="normal"


end timestep


start timestep kper="1" kstp="178" mode="normal"


end timestep


start timestep kper="1" kstp="179" mode="normal"


end timestep


start timestep kper="1" kstp="180" mode="normal"


end timestep


start timestep kper="1" kstp="181" mode="normal"


end timestep


start timestep kper="1" kstp="182" mode="normal"


end timestep


start timestep kper="1" kstp="183" mode="normal"


end timestep


start timestep kper="1" kstp="184" mode="normal"


end timestep


start timestep kper="1" kstp="185" mode="normal"


end timestep


start timestep kper="1" kstp="186" mode="normal"


end timestep


start timestep kper="1" kstp="187" mode="normal"


end timestep


start timestep kper="1" kstp="188" mode="normal"


end timestep


start timestep kper="1" kstp="189" mode="normal"


end timestep


start timestep kper="1" kstp="190" mode="normal"


end timestep


start timestep kper="1" kstp="191" mode="normal"


end timestep


start timestep kper="1" kstp="192" mode="normal"


end timestep


start timestep kper="1" kstp="193" mode="normal"


end timestep


start timestep kper="1" kstp="194" mode="normal"


end timestep


start timestep kper="1" kstp="195" mode="normal"


end timestep


start timestep kper="1" kstp="196" mode="normal"


end timestep


start timestep kper="1" kstp="197" mode="normal"


end timestep


start timestep kper="1" kstp="198" mode="normal"


end timestep


start timestep kper="1" kstp="199" mode="normal"


end timestep


start timestep kper="1" kstp="200" mode="normal"


end timestep


start timestep kper="1" kstp="201" mode="normal"


end timestep


start timestep kper="1" kstp="202" mode="normal"


end timestep


start timestep kper="1" kstp="203" mode="normal"


end timestep


start timestep kper="1" kstp="204" mode="normal"


end timestep


start timestep kper="1" kstp="205" mode="normal"


end timestep


start timestep kper="1" kstp="206" mode="normal"


end timestep


start timestep kper="1" kstp="207" mode="normal"


end timestep


start timestep kper="1" kstp="208" mode="normal"


end timestep


start timestep kper="1" kstp="209" mode="normal"


end timestep


start timestep kper="1" kstp="210" mode="normal"


end timestep


start timestep kper="1" kstp="211" mode="normal"


end timestep


start timestep kper="1" kstp="212" mode="normal"


end timestep


start timestep kper="1" kstp="213" mode="normal"


end timestep


start timestep kper="1" kstp="214" mode="normal"


end timestep


start timestep kper="1" kstp="215" mode="normal"


end timestep


start timestep kper="1" kstp="216" mode="normal"


end timestep


start timestep kper="1" kstp="217" mode="normal"


end timestep


start timestep kper="1" kstp="218" mode="normal"


end timestep


start timestep kper="1" kstp="219" mode="normal"


end timestep


start timestep kper="1" kstp="220" mode="normal"


end timestep


start timestep kper="1" kstp="221" mode="normal"


end timestep


start timestep kper="1" kstp="222" mode="normal"


end timestep


start timestep kper="1" kstp="223" mode="normal"


end timestep


start timestep kper="1" kstp="224" mode="normal"


end timestep


start timestep kper="1" kstp="225" mode="normal"


end timestep


start timestep kper="1" kstp="226" mode="normal"


end timestep


start timestep kper="1" kstp="227" mode="normal"


end timestep


start timestep kper="1" kstp="228" mode="normal"


end timestep


start timestep kper="1" kstp="229" mode="normal"


end timestep


start timestep kper="1" kstp="230" mode="normal"


end timestep


start timestep kper="1" kstp="231" mode="normal"


end timestep


start timestep kper="1" kstp="232" mode="normal"


end timestep


start timestep kper="1" kstp="233" mode="normal"


end timestep


start timestep kper="1" kstp="234" mode="normal"


end timestep


start timestep kper="1" kstp="235" mode="normal"


end timestep


start timestep kper="1" kstp="236" mode="normal"


end timestep


start timestep kper="1" kstp="237" mode="normal"


end timestep


start timestep kper="1" kstp="238" mode="normal"


end timestep


start timestep kper="1" kstp="239" mode="normal"


end timestep


start timestep kper="1" kstp="240" mode="normal"


end timestep


start timestep kper="1" kstp="241" mode="normal"


end timestep


start timestep kper="1" kstp="242" mode="normal"


end timestep


start timestep kper="1" kstp="243" mode="normal"


end timestep


start timestep kper="1" kstp="244" mode="normal"


end timestep


start timestep kper="1" kstp="245" mode="normal"


end timestep


start timestep kper="1" kstp="246" mode="normal"


end timestep


start timestep kper="1" kstp="247" mode="normal"


end timestep


start timestep kper="1" kstp="248" mode="normal"


end timestep


start timestep kper="1" kstp="249" mode="normal"


end timestep


start timestep kper="1" kstp="250" mode="normal"


 CONCENTRATION WILL BE SAVED ON UNIT 1054 AT END OF TIME STEP  250, STRESS PERIOD    1

end timestep


start timestep kper="1" kstp="251" mode="normal"


end timestep


start timestep kper="1" kstp="252" mode="normal"


end timestep


start timestep kper="1" kstp="253" mode="normal"


end timestep


start timestep kper="1" kstp="254" mode="normal"


end timestep


start timestep kper="1" kstp="255" mode="normal"


end timestep


start timestep kper="1" kstp="256" mode="normal"


end timestep


start timestep kper="1" kstp="257" mode="normal"


end timestep


start timestep kper="1" kstp="258" mode="normal"


end timestep


start timestep kper="1" kstp="259" mode="normal"


end timestep


start timestep kper="1" kstp="260" mode="normal"


end timestep


start timestep kper="1" kstp="261" mode="normal"


end timestep


start timestep kper="1" kstp="262" mode="normal"


end timestep


start timestep kper="1" kstp="263" mode="normal"


end timestep


start timestep kper="1" kstp="264" mode="normal"


end timestep


start timestep kper="1" kstp="265" mode="normal"


end timestep


start timestep kper="1" kstp="266" mode="normal"


end timestep


start timestep kper="1" kstp="267" mode="normal"


end timestep


start timestep kper="1" kstp="268" mode="normal"


end timestep


start timestep kper="1" kstp="269" mode="normal"


end timestep


start timestep kper="1" kstp="270" mode="normal"


end timestep


start timestep kper="1" kstp="271" mode="normal"


end timestep


start timestep kper="1" kstp="272" mode="normal"


end timestep


start timestep kper="1" kstp="273" mode="normal"


end timestep


start timestep kper="1" kstp="274" mode="normal"


end timestep


start timestep kper="1" kstp="275" mode="normal"


end timestep


start timestep kper="1" kstp="276" mode="normal"


end timestep


start timestep kper="1" kstp="277" mode="normal"


end timestep


start timestep kper="1" kstp="278" mode="normal"


end timestep


start timestep kper="1" kstp="279" mode="normal"


end timestep


start timestep kper="1" kstp="280" mode="normal"


end timestep


start timestep kper="1" kstp="281" mode="normal"


end timestep


start timestep kper="1" kstp="282" mode="normal"


end timestep


start timestep kper="1" kstp="283" mode="normal"


end timestep


start timestep kper="1" kstp="284" mode="normal"


end timestep


start timestep kper="1" kstp="285" mode="normal"


end timestep


start timestep kper="1" kstp="286" mode="normal"


end timestep


start timestep kper="1" kstp="287" mode="normal"


end timestep


start timestep kper="1" kstp="288" mode="normal"


end timestep


start timestep kper="1" kstp="289" mode="normal"


end timestep


start timestep kper="1" kstp="290" mode="normal"


end timestep


start timestep kper="1" kstp="291" mode="normal"


end timestep


start timestep kper="1" kstp="292" mode="normal"


end timestep


start timestep kper="1" kstp="293" mode="normal"


end timestep


start timestep kper="1" kstp="294" mode="normal"


end timestep


start timestep kper="1" kstp="295" mode="normal"


end timestep


start timestep kper="1" kstp="296" mode="normal"


end timestep


start timestep kper="1" kstp="297" mode="normal"


end timestep


start timestep kper="1" kstp="298" mode="normal"


end timestep


start timestep kper="1" kstp="299" mode="normal"


end timestep


start timestep kper="1" kstp="300" mode="normal"


end timestep


start timestep kper="1" kstp="301" mode="normal"


end timestep


start timestep kper="1" kstp="302" mode="normal"


end timestep


start timestep kper="1" kstp="303" mode="normal"


end timestep


start timestep kper="1" kstp="304" mode="normal"


end timestep


start timestep kper="1" kstp="305" mode="normal"


end timestep


start timestep kper="1" kstp="306" mode="normal"


end timestep


start timestep kper="1" kstp="307" mode="normal"


end timestep


start timestep kper="1" kstp="308" mode="normal"


end timestep


start timestep kper="1" kstp="309" mode="normal"


end timestep


start timestep kper="1" kstp="310" mode="normal"


end timestep


start timestep kper="1" kstp="311" mode="normal"


end timestep


start timestep kper="1" kstp="312" mode="normal"


end timestep


start timestep kper="1" kstp="313" mode="normal"


end timestep


start timestep kper="1" kstp="314" mode="normal"


end timestep


start timestep kper="1" kstp="315" mode="normal"


end timestep


start timestep kper="1" kstp="316" mode="normal"


end timestep


start timestep kper="1" kstp="317" mode="normal"


end timestep


start timestep kper="1" kstp="318" mode="normal"


end timestep


start timestep kper="1" kstp="319" mode="normal"


end timestep


start timestep kper="1" kstp="320" mode="normal"


end timestep


start timestep kper="1" kstp="321" mode="normal"


end timestep


start timestep kper="1" kstp="322" mode="normal"


end timestep


start timestep kper="1" kstp="323" mode="normal"


end timestep


start timestep kper="1" kstp="324" mode="normal"


end timestep


start timestep kper="1" kstp="325" mode="normal"


end timestep


start timestep kper="1" kstp="326" mode="normal"


end timestep


start timestep kper="1" kstp="327" mode="normal"


end timestep


start timestep kper="1" kstp="328" mode="normal"


end timestep


start timestep kper="1" kstp="329" mode="normal"


end timestep


start timestep kper="1" kstp="330" mode="normal"


end timestep


start timestep kper="1" kstp="331" mode="normal"


end timestep


start timestep kper="1" kstp="332" mode="normal"


end timestep


start timestep kper="1" kstp="333" mode="normal"


end timestep


start timestep kper="1" kstp="334" mode="normal"


end timestep


start timestep kper="1" kstp="335" mode="normal"


end timestep


start timestep kper="1" kstp="336" mode="normal"


end timestep


start timestep kper="1" kstp="337" mode="normal"


end timestep


start timestep kper="1" kstp="338" mode="normal"


end timestep


start timestep kper="1" kstp="339" mode="normal"


end timestep


start timestep kper="1" kstp="340" mode="normal"


end timestep


start timestep kper="1" kstp="341" mode="normal"


end timestep


start timestep kper="1" kstp="342" mode="normal"


end timestep


start timestep kper="1" kstp="343" mode="normal"


end timestep


start timestep kper="1" kstp="344" mode="normal"


end timestep


start timestep kper="1" kstp="345" mode="normal"


end timestep


start timestep kper="1" kstp="346" mode="normal"


end timestep


start timestep kper="1" kstp="347" mode="normal"


end timestep


start timestep kper="1" kstp="348" mode="normal"


end timestep


start timestep kper="1" kstp="349" mode="normal"


end timestep


start timestep kper="1" kstp="350" mode="normal"


end timestep


start timestep kper="1" kstp="351" mode="normal"


end timestep


start timestep kper="1" kstp="352" mode="normal"


end timestep


start timestep kper="1" kstp="353" mode="normal"


end timestep


start timestep kper="1" kstp="354" mode="normal"


end timestep


start timestep kper="1" kstp="355" mode="normal"


end timestep


start timestep kper="1" kstp="356" mode="normal"


end timestep


start timestep kper="1" kstp="357" mode="normal"


end timestep


start timestep kper="1" kstp="358" mode="normal"


end timestep


start timestep kper="1" kstp="359" mode="normal"


end timestep


start timestep kper="1" kstp="360" mode="normal"


end timestep


start timestep kper="1" kstp="361" mode="normal"


end timestep


start timestep kper="1" kstp="362" mode="normal"


end timestep


start timestep kper="1" kstp="363" mode="normal"


end timestep


start timestep kper="1" kstp="364" mode="normal"


end timestep


start timestep kper="1" kstp="365" mode="normal"


end timestep


start timestep kper="1" kstp="366" mode="normal"


end timestep


start timestep kper="1" kstp="367" mode="normal"


end timestep


start timestep kper="1" kstp="368" mode="normal"


end timestep


start timestep kper="1" kstp="369" mode="normal"


end timestep


start timestep kper="1" kstp="370" mode="normal"


end timestep


start timestep kper="1" kstp="371" mode="normal"


end timestep


start timestep kper="1" kstp="372" mode="normal"


end timestep


start timestep kper="1" kstp="373" mode="normal"


end timestep


start timestep kper="1" kstp="374" mode="normal"


end timestep


start timestep kper="1" kstp="375" mode="normal"


 CONCENTRATION WILL BE SAVED ON UNIT 1054 AT END OF TIME STEP  375, STRESS PERIOD    1

end timestep


start timestep kper="1" kstp="376" mode="normal"


end timestep


start timestep kper="1" kstp="377" mode="normal"


end timestep


start timestep kper="1" kstp="378" mode="normal"


end timestep


start timestep kper="1" kstp="379" mode="normal"


end timestep


start timestep kper="1" kstp="380" mode="normal"


end timestep


start timestep kper="1" kstp="381" mode="normal"


end timestep


start timestep kper="1" kstp="382" mode="normal"


end timestep


start timestep kper="1" kstp="383" mode="normal"


end timestep


start timestep kper="1" kstp="384" mode="normal"


end timestep


start timestep kper="1" kstp="385" mode="normal"


end timestep


start timestep kper="1" kstp="386" mode="normal"


end timestep


start timestep kper="1" kstp="387" mode="normal"


end timestep


start timestep kper="1" kstp="388" mode="normal"


end timestep


start timestep kper="1" kstp="389" mode="normal"


end timestep


start timestep kper="1" kstp="390" mode="normal"


end timestep


start timestep kper="1" kstp="391" mode="normal"


end timestep


start timestep kper="1" kstp="392" mode="normal"


end timestep


start timestep kper="1" kstp="393" mode="normal"


end timestep


start timestep kper="1" kstp="394" mode="normal"


end timestep


start timestep kper="1" kstp="395" mode="normal"


end timestep


start timestep kper="1" kstp="396" mode="normal"


end timestep


start timestep kper="1" kstp="397" mode="normal"


end timestep


start timestep kper="1" kstp="398" mode="normal"


end timestep


start timestep kper="1" kstp="399" mode="normal"


end timestep


start timestep kper="1" kstp="400" mode="normal"


end timestep


start timestep kper="1" kstp="401" mode="normal"


end timestep


start timestep kper="1" kstp="402" mode="normal"


end timestep


start timestep kper="1" kstp="403" mode="normal"


end timestep


start timestep kper="1" kstp="404" mode="normal"


end timestep


start timestep kper="1" kstp="405" mode="normal"


end timestep


start timestep kper="1" kstp="406" mode="normal"


end timestep


start timestep kper="1" kstp="407" mode="normal"


end timestep


start timestep kper="1" kstp="408" mode="normal"


end timestep


start timestep kper="1" kstp="409" mode="normal"


end timestep


start timestep kper="1" kstp="410" mode="normal"


end timestep


start timestep kper="1" kstp="411" mode="normal"


end timestep


start timestep kper="1" kstp="412" mode="normal"


end timestep


start timestep kper="1" kstp="413" mode="normal"


end timestep


start timestep kper="1" kstp="414" mode="normal"


end timestep


start timestep kper="1" kstp="415" mode="normal"


end timestep


start timestep kper="1" kstp="416" mode="normal"


end timestep


start timestep kper="1" kstp="417" mode="normal"


end timestep


start timestep kper="1" kstp="418" mode="normal"


end timestep


start timestep kper="1" kstp="419" mode="normal"


end timestep


start timestep kper="1" kstp="420" mode="normal"


end timestep


start timestep kper="1" kstp="421" mode="normal"


end timestep


start timestep kper="1" kstp="422" mode="normal"


end timestep


start timestep kper="1" kstp="423" mode="normal"


end timestep


start timestep kper="1" kstp="424" mode="normal"


end timestep


start timestep kper="1" kstp="425" mode="normal"


end timestep


start timestep kper="1" kstp="426" mode="normal"


end timestep


start timestep kper="1" kstp="427" mode="normal"


end timestep


start timestep kper="1" kstp="428" mode="normal"


end timestep


start timestep kper="1" kstp="429" mode="normal"


end timestep


start timestep kper="1" kstp="430" mode="normal"


end timestep


start timestep kper="1" kstp="431" mode="normal"


end timestep


start timestep kper="1" kstp="432" mode="normal"


end timestep


start timestep kper="1" kstp="433" mode="normal"


end timestep


start timestep kper="1" kstp="434" mode="normal"


end timestep


start timestep kper="1" kstp="435" mode="normal"


end timestep


start timestep kper="1" kstp="436" mode="normal"


end timestep


start timestep kper="1" kstp="437" mode="normal"


end timestep


start timestep kper="1" kstp="438" mode="normal"


end timestep


start timestep kper="1" kstp="439" mode="normal"


end timestep


start timestep kper="1" kstp="440" mode="normal"


end timestep


start timestep kper="1" kstp="441" mode="normal"


end timestep


start timestep kper="1" kstp="442" mode="normal"


end timestep


start timestep kper="1" kstp="443" mode="normal"


end timestep


start timestep kper="1" kstp="444" mode="normal"


end timestep


start timestep kper="1" kstp="445" mode="normal"


end timestep


start timestep kper="1" kstp="446" mode="normal"


end timestep


start timestep kper="1" kstp="447" mode="normal"


end timestep


start timestep kper="1" kstp="448" mode="normal"


end timestep


start timestep kper="1" kstp="449" mode="normal"


end timestep


start timestep kper="1" kstp="450" mode="normal"


end timestep


start timestep kper="1" kstp="451" mode="normal"


end timestep


start timestep kper="1" kstp="452" mode="normal"


end timestep


start timestep kper="1" kstp="453" mode="normal"


end timestep


start timestep kper="1" kstp="454" mode="normal"


end timestep


start timestep kper="1" kstp="455" mode="normal"


end timestep


start timestep kper="1" kstp="456" mode="normal"


end timestep


start timestep kper="1" kstp="457" mode="normal"


end timestep


start timestep kper="1" kstp="458" mode="normal"


end timestep


start timestep kper="1" kstp="459" mode="normal"


end timestep


start timestep kper="1" kstp="460" mode="normal"


end timestep


start timestep kper="1" kstp="461" mode="normal"


end timestep


start timestep kper="1" kstp="462" mode="normal"


end timestep


start timestep kper="1" kstp="463" mode="normal"


end timestep


start timestep kper="1" kstp="464" mode="normal"


end timestep


start timestep kper="1" kstp="465" mode="normal"


end timestep


start timestep kper="1" kstp="466" mode="normal"


end timestep


start timestep kper="1" kstp="467" mode="normal"


end timestep


start timestep kper="1" kstp="468" mode="normal"


end timestep


start timestep kper="1" kstp="469" mode="normal"


end timestep


start timestep kper="1" kstp="470" mode="normal"


end timestep


start timestep kper="1" kstp="471" mode="normal"


end timestep


start timestep kper="1" kstp="472" mode="normal"


end timestep


start timestep kper="1" kstp="473" mode="normal"


end timestep


start timestep kper="1" kstp="474" mode="normal"


end timestep


start timestep kper="1" kstp="475" mode="normal"


end timestep


start timestep kper="1" kstp="476" mode="normal"


end timestep


start timestep kper="1" kstp="477" mode="normal"


end timestep


start timestep kper="1" kstp="478" mode="normal"


end timestep


start timestep kper="1" kstp="479" mode="normal"


end timestep


start timestep kper="1" kstp="480" mode="normal"


end timestep


start timestep kper="1" kstp="481" mode="normal"


end timestep


start timestep kper="1" kstp="482" mode="normal"


end timestep


start timestep kper="1" kstp="483" mode="normal"


end timestep


start timestep kper="1" kstp="484" mode="normal"


end timestep


start timestep kper="1" kstp="485" mode="normal"


end timestep


start timestep kper="1" kstp="486" mode="normal"


end timestep


start timestep kper="1" kstp="487" mode="normal"


end timestep


start timestep kper="1" kstp="488" mode="normal"


end timestep


start timestep kper="1" kstp="489" mode="normal"


end timestep


start timestep kper="1" kstp="490" mode="normal"


end timestep


start timestep kper="1" kstp="491" mode="normal"


end timestep


start timestep kper="1" kstp="492" mode="normal"


end timestep


start timestep kper="1" kstp="493" mode="normal"


end timestep


start timestep kper="1" kstp="494" mode="normal"


end timestep


start timestep kper="1" kstp="495" mode="normal"


end timestep


start timestep kper="1" kstp="496" mode="normal"


end timestep


start timestep kper="1" kstp="497" mode="normal"


end timestep


start timestep kper="1" kstp="498" mode="normal"


end timestep


start timestep kper="1" kstp="499" mode="normal"


end timestep


start timestep kper="1" kstp="500" mode="normal"

 UBDSV1 SAVING  STORAGE-AQUEOUS ON UNIT   1053 AT TIME STEP    500, STRESS PERIOD      1
 UBDSV1 SAVING   STORAGE-SORBED ON UNIT   1053 AT TIME STEP    500, STRESS PERIOD      1
 UBDSV1 SAVING     FLOW-JA-FACE ON UNIT   1053 AT TIME STEP    500, STRESS PERIOD      1
 UBDSV06 SAVING  SOURCE-SINK MIX IN MODEL GWT-OUTER        PACKAGE GWT-OUTER       CONNECTED TO MODEL GWT-OUTER        PACKAGE SSM              ON UNIT   1053 AT TIME STEP    500, STRESS PERIOD      1

 SSM PACKAGE (SSM) FLOW RATES   PERIOD      1   STEP      500
 ------------------------------------------------------------------------------------------------
   NUMBER   CELLID                   BOUND Q        SSM CONC          RATE         PACKAGE NAME  
 ------------------------------------------------------------------------------------------------
     1      (1,1,1)               0.0000000       0.0000000       0.0000000           RCH-1      
     2      (1,1,2)               0.0000000       0.0000000       0.0000000           RCH-1      
     3      (1,1,3)               0.0000000       0.0000000       0.0000000           RCH-1      
     4      (1,1,4)               0.0000000       0.0000000       0.0000000           RCH-1      
     5      (1,1,5)               0.0000000       0.0000000       0.0000000           RCH-1      
     6      (1,1,6)               0.0000000       0.0000000       0.0000000           RCH-1      
     7      (1,1,7)               0.0000000       0.0000000       0.0000000           RCH-1      
     8      (1,1,8)               0.0000000       0.0000000       0.0000000           RCH-1      
     9      (1,1,9)               0.0000000       0.0000000       0.0000000           RCH-1      
     10     (1,1,10)              0.0000000       0.0000000       0.0000000           RCH-1      
     11     (1,1,11)              0.0000000       0.0000000       0.0000000           RCH-1      
     12     (1,1,12)              0.0000000       0.0000000       0.0000000           RCH-1      
     13     (1,1,13)              0.0000000       0.0000000       0.0000000           RCH-1      
     14     (1,1,14)              0.0000000       0.0000000       0.0000000           RCH-1      
     15     (1,1,15)              0.0000000       0.0000000       0.0000000           RCH-1      
     16     (1,1,16)              0.0000000       0.0000000       0.0000000           RCH-1      
     17     (1,1,17)              0.0000000       0.0000000       0.0000000           RCH-1      
     18     (1,1,18)              0.0000000       0.0000000       0.0000000           RCH-1      
     19     (1,1,19)              0.0000000       0.0000000       0.0000000           RCH-1      
     20     (1,1,20)              0.0000000       0.0000000       0.0000000           RCH-1      
     21     (1,1,21)              0.0000000       0.0000000       0.0000000           RCH-1      
     22     (1,1,22)              0.0000000       0.0000000       0.0000000           RCH-1      
     23     (1,1,23)              0.0000000       0.0000000       0.0000000           RCH-1      
     24     (1,1,24)              0.0000000       0.0000000       0.0000000           RCH-1      
     25     (1,1,25)              0.0000000       0.0000000       0.0000000           RCH-1      
     26     (1,1,26)              0.0000000       0.0000000       0.0000000           RCH-1      
     27     (1,1,27)              0.0000000       0.0000000       0.0000000           RCH-1      
     28     (1,1,28)              0.0000000       0.0000000       0.0000000           RCH-1      
     29     (1,1,29)              0.0000000       0.0000000       0.0000000           RCH-1      
     30     (1,1,30)              0.0000000       0.0000000       0.0000000           RCH-1      
     31     (1,1,31)              0.0000000       0.0000000       0.0000000           RCH-1      
     32     (1,1,32)              0.0000000       0.0000000       0.0000000           RCH-1      
     33     (1,1,33)              0.0000000       0.0000000       0.0000000           RCH-1      
     34     (1,1,34)              0.0000000       0.0000000       0.0000000           RCH-1      
     35     (1,1,35)              0.0000000       0.0000000       0.0000000           RCH-1      
     36     (1,1,36)              0.0000000       0.0000000       0.0000000           RCH-1      
     37     (1,1,37)              0.0000000       0.0000000       0.0000000           RCH-1      
     38     (1,1,38)              0.0000000       0.0000000       0.0000000           RCH-1      
     39     (1,1,39)              0.0000000       0.0000000       0.0000000           RCH-1      
     40     (1,1,40)              0.0000000       0.0000000       0.0000000           RCH-1      
     41     (1,2,1)               0.0000000       0.0000000       0.0000000           RCH-1      
     42     (1,2,2)               3652.9600       0.0000000       0.0000000           RCH-1      
     43     (1,2,3)               1826.4800       0.0000000       0.0000000           RCH-1      
     44     (1,2,4)               913.24000       0.0000000       0.0000000           RCH-1      
     45     (1,2,5)               456.62000       0.0000000       0.0000000           RCH-1      
     46     (1,2,6)               228.31000       0.0000000       0.0000000           RCH-1      
     47     (1,2,7)               114.15500       0.0000000       0.0000000           RCH-1      
     48     (1,2,8)               114.15500       0.0000000       0.0000000           RCH-1      
     49     (1,2,9)               114.15500       0.0000000       0.0000000           RCH-1      
     50     (1,2,10)              114.15500       0.0000000       0.0000000           RCH-1      
     51     (1,2,11)              114.15500       0.0000000       0.0000000           RCH-1      
     52     (1,2,12)              114.15500       0.0000000       0.0000000           RCH-1      
     53     (1,2,13)              114.15500       0.0000000       0.0000000           RCH-1      
     54     (1,2,14)              114.15500       0.0000000       0.0000000           RCH-1      
     55     (1,2,15)              114.15500       0.0000000       0.0000000           RCH-1      
     56     (1,2,16)              114.15500       0.0000000       0.0000000           RCH-1      
     57     (1,2,17)              114.15500       0.0000000       0.0000000           RCH-1      
     58     (1,2,18)              114.15500       0.0000000       0.0000000           RCH-1      
     59     (1,2,19)              114.15500       0.0000000       0.0000000           RCH-1      
     60     (1,2,20)              114.15500       0.0000000       0.0000000           RCH-1      
     61     (1,2,21)              114.15500       0.0000000       0.0000000           RCH-1      
     62     (1,2,22)              114.15500       0.0000000       0.0000000           RCH-1      
     63     (1,2,23)              114.15500       0.0000000       0.0000000           RCH-1      
     64     (1,2,24)              114.15500       0.0000000       0.0000000           RCH-1      
     65     (1,2,25)              114.15500       0.0000000       0.0000000           RCH-1      
     66     (1,2,26)              114.15500       0.0000000       0.0000000           RCH-1      
     67     (1,2,27)              114.15500       0.0000000       0.0000000           RCH-1      
     68     (1,2,28)              114.15500       0.0000000       0.0000000           RCH-1      
     69     (1,2,29)              114.15500       0.0000000       0.0000000           RCH-1      
     70     (1,2,30)              114.15500       0.0000000       0.0000000           RCH-1      
     71     (1,2,31)              114.15500       0.0000000       0.0000000           RCH-1      
     72     (1,2,32)              114.15500       0.0000000       0.0000000           RCH-1      
     73     (1,2,33)              114.15500       0.0000000       0.0000000           RCH-1      
     74     (1,2,34)              114.15500       0.0000000       0.0000000           RCH-1      
     75     (1,2,35)              228.31000       0.0000000       0.0000000           RCH-1      
     76     (1,2,36)              456.62000       0.0000000       0.0000000           RCH-1      
     77     (1,2,37)              913.24000       0.0000000       0.0000000           RCH-1      
     78     (1,2,38)              1826.4800       0.0000000       0.0000000           RCH-1      
     79     (1,2,39)              3652.9600       0.0000000       0.0000000           RCH-1      
     80     (1,2,40)              0.0000000       0.0000000       0.0000000           RCH-1      
     81     (1,3,1)               0.0000000       0.0000000       0.0000000           RCH-1      
     82     (1,3,2)               3652.9600       0.0000000       0.0000000           RCH-1      
     83     (1,3,3)               1826.4800       0.0000000       0.0000000           RCH-1      
     84     (1,3,4)               913.24000       0.0000000       0.0000000           RCH-1      
     85     (1,3,5)               456.62000       0.0000000       0.0000000           RCH-1      
     86     (1,3,6)               228.31000       0.0000000       0.0000000           RCH-1      
     87     (1,3,7)               114.15500       0.0000000       0.0000000           RCH-1      
     88     (1,3,8)               114.15500       0.0000000       0.0000000           RCH-1      
     89     (1,3,9)               114.15500       0.0000000       0.0000000           RCH-1      
     90     (1,3,10)              114.15500       0.0000000       0.0000000           RCH-1      
     91     (1,3,11)              114.15500       0.0000000       0.0000000           RCH-1      
     92     (1,3,12)              114.15500       0.0000000       0.0000000           RCH-1      
     93     (1,3,13)              114.15500       0.0000000       0.0000000           RCH-1      
     94     (1,3,14)              114.15500       0.0000000       0.0000000           RCH-1      
     95     (1,3,15)              114.15500       0.0000000       0.0000000           RCH-1      
     96     (1,3,16)              114.15500       0.0000000       0.0000000           RCH-1      
     97     (1,3,17)              114.15500       0.0000000       0.0000000           RCH-1      
     98     (1,3,18)              114.15500       0.0000000       0.0000000           RCH-1      
     99     (1,3,19)              114.15500       0.0000000       0.0000000           RCH-1      
    100     (1,3,20)              114.15500       0.0000000       0.0000000           RCH-1      
    101     (1,3,21)              114.15500       0.0000000       0.0000000           RCH-1      
    102     (1,3,22)              114.15500       0.0000000       0.0000000           RCH-1      
    103     (1,3,23)              114.15500       0.0000000       0.0000000           RCH-1      
    104     (1,3,24)              114.15500       0.0000000       0.0000000           RCH-1      
    105     (1,3,25)              114.15500       0.0000000       0.0000000           RCH-1      
    106     (1,3,26)              114.15500       0.0000000       0.0000000           RCH-1      
    107     (1,3,27)              114.15500       0.0000000       0.0000000           RCH-1      
    108     (1,3,28)              114.15500       0.0000000       0.0000000           RCH-1      
    109     (1,3,29)              114.15500       0.0000000       0.0000000           RCH-1      
    110     (1,3,30)              114.15500       0.0000000       0.0000000           RCH-1      
    111     (1,3,31)              114.15500       0.0000000       0.0000000           RCH-1      
    112     (1,3,32)              114.15500       0.0000000       0.0000000           RCH-1      
    113     (1,3,33)              114.15500       0.0000000       0.0000000           RCH-1      
    114     (1,3,34)              114.15500       0.0000000       0.0000000           RCH-1      
    115     (1,3,35)              228.31000       0.0000000       0.0000000           RCH-1      
    116     (1,3,36)              456.62000       0.0000000       0.0000000           RCH-1      
    117     (1,3,37)              913.24000       0.0000000       0.0000000           RCH-1      
    118     (1,3,38)              1826.4800       0.0000000       0.0000000           RCH-1      
    119     (1,3,39)              3652.9600       0.0000000       0.0000000           RCH-1      
    120     (1,3,40)              0.0000000       0.0000000       0.0000000           RCH-1      
    121     (1,4,1)               0.0000000       0.0000000       0.0000000           RCH-1      
    122     (1,4,2)               2922.3680       0.0000000       0.0000000           RCH-1      
    123     (1,4,3)               1461.1840       0.0000000       0.0000000           RCH-1      
    124     (1,4,4)               730.59200       0.0000000       0.0000000           RCH-1      
    125     (1,4,5)               365.29600       0.0000000       0.0000000           RCH-1      
    126     (1,4,6)               182.64800       0.0000000       0.0000000           RCH-1      
    127     (1,4,7)               91.324000       0.0000000       0.0000000           RCH-1      
    128     (1,4,8)               91.324000       0.0000000       0.0000000           RCH-1      
    129     (1,4,9)               91.324000       0.0000000       0.0000000           RCH-1      
    130     (1,4,10)              91.324000       0.0000000       0.0000000           RCH-1      
    131     (1,4,11)              91.324000       0.0000000       0.0000000           RCH-1      
    132     (1,4,12)              91.324000       0.0000000       0.0000000           RCH-1      
    133     (1,4,13)              91.324000       0.0000000       0.0000000           RCH-1      
    134     (1,4,14)              91.324000       0.0000000       0.0000000           RCH-1      
    135     (1,4,15)              91.324000       0.0000000       0.0000000           RCH-1      
    136     (1,4,16)              91.324000       0.0000000       0.0000000           RCH-1      
    137     (1,4,17)              91.324000       0.0000000       0.0000000           RCH-1      
    138     (1,4,18)              91.324000       0.0000000       0.0000000           RCH-1      
    139     (1,4,19)              91.324000       0.0000000       0.0000000           RCH-1      
    140     (1,4,20)              91.324000       0.0000000       0.0000000           RCH-1      
    141     (1,4,21)              91.324000       0.0000000       0.0000000           RCH-1      
    142     (1,4,22)              91.324000       0.0000000       0.0000000           RCH-1      
    143     (1,4,23)              91.324000       0.0000000       0.0000000           RCH-1      
    144     (1,4,24)              91.324000       0.0000000       0.0000000           RCH-1      
    145     (1,4,25)              91.324000       0.0000000       0.0000000           RCH-1      
    146     (1,4,26)              91.324000       0.0000000       0.0000000           RCH-1      
    147     (1,4,27)              91.324000       0.0000000       0.0000000           RCH-1      
    148     (1,4,28)              91.324000       0.0000000       0.0000000           RCH-1      
    149     (1,4,29)              91.324000       0.0000000       0.0000000           RCH-1      
    150     (1,4,30)              91.324000       0.0000000       0.0000000           RCH-1      
    151     (1,4,31)              91.324000       0.0000000       0.0000000           RCH-1      
    152     (1,4,32)              91.324000       0.0000000       0.0000000           RCH-1      
    153     (1,4,33)              91.324000       0.0000000       0.0000000           RCH-1      
    154     (1,4,34)              91.324000       0.0000000       0.0000000           RCH-1      
    155     (1,4,35)              182.64800       0.0000000       0.0000000           RCH-1      
    156     (1,4,36)              365.29600       0.0000000       0.0000000           RCH-1      
    157     (1,4,37)              730.59200       0.0000000       0.0000000           RCH-1      
    158     (1,4,38)              1461.1840       0.0000000       0.0000000           RCH-1      
    159     (1,4,39)              2922.3680       0.0000000       0.0000000           RCH-1      
    160     (1,4,40)              0.0000000       0.0000000       0.0000000           RCH-1      
    161     (1,5,1)               0.0000000       0.0000000       0.0000000           RCH-1      
    162     (1,5,2)               1461.1840       0.0000000       0.0000000           RCH-1      
    163     (1,5,3)               730.59200       0.0000000       0.0000000           RCH-1      
    164     (1,5,4)               365.29600       0.0000000       0.0000000           RCH-1      
    165     (1,5,5)               182.64800       0.0000000       0.0000000           RCH-1      
    166     (1,5,6)               91.324000       0.0000000       0.0000000           RCH-1      
    167     (1,5,7)               45.662000       0.0000000       0.0000000           RCH-1      
    168     (1,5,8)               45.662000       0.0000000       0.0000000           RCH-1      
    169     (1,5,9)               45.662000       0.0000000       0.0000000           RCH-1      
    170     (1,5,10)              45.662000       0.0000000       0.0000000           RCH-1      
    171     (1,5,11)              45.662000       0.0000000       0.0000000           RCH-1      
    172     (1,5,12)              45.662000       0.0000000       0.0000000           RCH-1      
    173     (1,5,13)              45.662000       0.0000000       0.0000000           RCH-1      
    174     (1,5,14)              45.662000       0.0000000       0.0000000           RCH-1      
    175     (1,5,15)              45.662000       0.0000000       0.0000000           RCH-1      
    176     (1,5,16)              45.662000       0.0000000       0.0000000           RCH-1      
    177     (1,5,17)              45.662000       0.0000000       0.0000000           RCH-1      
    178     (1,5,18)              45.662000       0.0000000       0.0000000           RCH-1      
    179     (1,5,19)              45.662000       0.0000000       0.0000000           RCH-1      
    180     (1,5,20)              45.662000       0.0000000       0.0000000           RCH-1      
    181     (1,5,21)              45.662000       0.0000000       0.0000000           RCH-1      
    182     (1,5,22)              45.662000       0.0000000       0.0000000           RCH-1      
    183     (1,5,23)              45.662000       0.0000000       0.0000000           RCH-1      
    184     (1,5,24)              45.662000       0.0000000       0.0000000           RCH-1      
    185     (1,5,25)              45.662000       0.0000000       0.0000000           RCH-1      
    186     (1,5,26)              45.662000       0.0000000       0.0000000           RCH-1      
    187     (1,5,27)              45.662000       0.0000000       0.0000000           RCH-1      
    188     (1,5,28)              45.662000       0.0000000       0.0000000           RCH-1      
    189     (1,5,29)              45.662000       0.0000000       0.0000000           RCH-1      
    190     (1,5,30)              45.662000       0.0000000       0.0000000           RCH-1      
    191     (1,5,31)              45.662000       0.0000000       0.0000000           RCH-1      
    192     (1,5,32)              45.662000       0.0000000       0.0000000           RCH-1      
    193     (1,5,33)              45.662000       0.0000000       0.0000000           RCH-1      
    194     (1,5,34)              45.662000       0.0000000       0.0000000           RCH-1      
    195     (1,5,35)              91.324000       0.0000000       0.0000000           RCH-1      
    196     (1,5,36)              182.64800       0.0000000       0.0000000           RCH-1      
    197     (1,5,37)              365.29600       0.0000000       0.0000000           RCH-1      
    198     (1,5,38)              730.59200       0.0000000       0.0000000           RCH-1      
    199     (1,5,39)              1461.1840       0.0000000       0.0000000           RCH-1      
    200     (1,5,40)              0.0000000       0.0000000       0.0000000           RCH-1      
    201     (1,6,1)               0.0000000       0.0000000       0.0000000           RCH-1      
    202     (1,6,2)               730.59200       0.0000000       0.0000000           RCH-1      
    203     (1,6,3)               365.29600       0.0000000       0.0000000           RCH-1      
    204     (1,6,4)               182.64800       0.0000000       0.0000000           RCH-1      
    205     (1,6,5)               91.324000       0.0000000       0.0000000           RCH-1      
    206     (1,6,6)               45.662000       0.0000000       0.0000000           RCH-1      
    207     (1,6,7)               22.831000       0.0000000       0.0000000           RCH-1      
    208     (1,6,8)               22.831000       0.0000000       0.0000000           RCH-1      
    209     (1,6,9)               22.831000       0.0000000       0.0000000           RCH-1      
    210     (1,6,10)              22.831000       0.0000000       0.0000000           RCH-1      
    211     (1,6,11)              22.831000       0.0000000       0.0000000           RCH-1      
    212     (1,6,12)              22.831000       0.0000000       0.0000000           RCH-1      
    213     (1,6,13)              22.831000       0.0000000       0.0000000           RCH-1      
    214     (1,6,14)              22.831000       0.0000000       0.0000000           RCH-1      
    215     (1,6,15)              22.831000       0.0000000       0.0000000           RCH-1      
    216     (1,6,16)              22.831000       0.0000000       0.0000000           RCH-1      
    217     (1,6,17)              22.831000       0.0000000       0.0000000           RCH-1      
    218     (1,6,18)              22.831000       0.0000000       0.0000000           RCH-1      
    219     (1,6,19)              22.831000       0.0000000       0.0000000           RCH-1      
    220     (1,6,20)              22.831000       0.0000000       0.0000000           RCH-1      
    221     (1,6,21)              22.831000       0.0000000       0.0000000           RCH-1      
    222     (1,6,22)              22.831000       0.0000000       0.0000000           RCH-1      
    223     (1,6,23)              22.831000       0.0000000       0.0000000           RCH-1      
    224     (1,6,24)              22.831000       0.0000000       0.0000000           RCH-1      
    225     (1,6,25)              22.831000       0.0000000       0.0000000           RCH-1      
    226     (1,6,26)              22.831000       0.0000000       0.0000000           RCH-1      
    227     (1,6,27)              22.831000       0.0000000       0.0000000           RCH-1      
    228     (1,6,28)              22.831000       0.0000000       0.0000000           RCH-1      
    229     (1,6,29)              22.831000       0.0000000       0.0000000           RCH-1      
    230     (1,6,30)              22.831000       0.0000000       0.0000000           RCH-1      
    231     (1,6,31)              22.831000       0.0000000       0.0000000           RCH-1      
    232     (1,6,32)              22.831000       0.0000000       0.0000000           RCH-1      
    233     (1,6,33)              22.831000       0.0000000       0.0000000           RCH-1      
    234     (1,6,34)              22.831000       0.0000000       0.0000000           RCH-1      
    235     (1,6,35)              45.662000       0.0000000       0.0000000           RCH-1      
    236     (1,6,36)              91.324000       0.0000000       0.0000000           RCH-1      
    237     (1,6,37)              182.64800       0.0000000       0.0000000           RCH-1      
    238     (1,6,38)              365.29600       0.0000000       0.0000000           RCH-1      
    239     (1,6,39)              730.59200       0.0000000       0.0000000           RCH-1      
    240     (1,6,40)              0.0000000       0.0000000       0.0000000           RCH-1      
    241     (1,7,1)               0.0000000       0.0000000       0.0000000           RCH-1      
    242     (1,7,2)               365.29600       0.0000000       0.0000000           RCH-1      
    243     (1,7,3)               182.64800       0.0000000       0.0000000           RCH-1      
    244     (1,7,4)               91.324000       0.0000000       0.0000000           RCH-1      
    245     (1,7,5)               45.662000       0.0000000       0.0000000           RCH-1      
    246     (1,7,6)               22.831000       0.0000000       0.0000000           RCH-1      
    247     (1,7,7)               11.415500       0.0000000       0.0000000           RCH-1      
    248     (1,7,8)               11.415500       0.0000000       0.0000000           RCH-1      
    249     (1,7,9)               11.415500       0.0000000       0.0000000           RCH-1      
    250     (1,7,10)              11.415500       0.0000000       0.0000000           RCH-1      
    251     (1,7,11)              11.415500       0.0000000       0.0000000           RCH-1      
    252     (1,7,12)              11.415500       0.0000000       0.0000000           RCH-1      
    253     (1,7,13)              11.415500       0.0000000       0.0000000           RCH-1      
    254     (1,7,14)              11.415500       0.0000000       0.0000000           RCH-1      
    255     (1,7,15)              11.415500       0.0000000       0.0000000           RCH-1      
    256     (1,7,16)              11.415500       0.0000000       0.0000000           RCH-1      
    257     (1,7,17)              11.415500       0.0000000       0.0000000           RCH-1      
    258     (1,7,18)              11.415500       0.0000000       0.0000000           RCH-1      
    259     (1,7,19)              11.415500       0.0000000       0.0000000           RCH-1      
    260     (1,7,20)              11.415500       0.0000000       0.0000000           RCH-1      
    261     (1,7,21)              11.415500       0.0000000       0.0000000           RCH-1      
    262     (1,7,22)              11.415500       0.0000000       0.0000000           RCH-1      
    263     (1,7,23)              11.415500       0.0000000       0.0000000           RCH-1      
    264     (1,7,24)              11.415500       0.0000000       0.0000000           RCH-1      
    265     (1,7,25)              11.415500       0.0000000       0.0000000           RCH-1      
    266     (1,7,26)              11.415500       0.0000000       0.0000000           RCH-1      
    267     (1,7,27)              11.415500       0.0000000       0.0000000           RCH-1      
    268     (1,7,28)              11.415500       0.0000000       0.0000000           RCH-1      
    269     (1,7,29)              11.415500       0.0000000       0.0000000           RCH-1      
    270     (1,7,30)              11.415500       0.0000000       0.0000000           RCH-1      
    271     (1,7,31)              11.415500       0.0000000       0.0000000           RCH-1      
    272     (1,7,32)              11.415500       0.0000000       0.0000000           RCH-1      
    273     (1,7,33)              11.415500       0.0000000       0.0000000           RCH-1      
    274     (1,7,34)              11.415500       0.0000000       0.0000000           RCH-1      
    275     (1,7,35)              22.831000       0.0000000       0.0000000           RCH-1      
    276     (1,7,36)              45.662000       0.0000000       0.0000000           RCH-1      
    277     (1,7,37)              91.324000       0.0000000       0.0000000           RCH-1      
    278     (1,7,38)              182.64800       0.0000000       0.0000000           RCH-1      
    279     (1,7,39)              365.29600       0.0000000       0.0000000           RCH-1      
    280     (1,7,40)              0.0000000       0.0000000       0.0000000           RCH-1      
    281     (1,8,1)               0.0000000       0.0000000       0.0000000           RCH-1      
    282     (1,8,2)               182.64800       0.0000000       0.0000000           RCH-1      
    283     (1,8,3)               91.324000       0.0000000       0.0000000           RCH-1      
    284     (1,8,4)               45.662000       0.0000000       0.0000000           RCH-1      
    285     (1,8,5)               22.831000       0.0000000       0.0000000           RCH-1      
    286     (1,8,6)               11.415500       0.0000000       0.0000000           RCH-1      
    287     (1,8,7)               5.7077500       0.0000000       0.0000000           RCH-1      
    288     (1,8,8)               5.7077500       0.0000000       0.0000000           RCH-1      
    289     (1,8,9)               5.7077500       0.0000000       0.0000000           RCH-1      
    290     (1,8,10)              5.7077500       0.0000000       0.0000000           RCH-1      
    291     (1,8,11)              5.7077500       0.0000000       0.0000000           RCH-1      
    292     (1,8,12)              5.7077500       0.0000000       0.0000000           RCH-1      
    293     (1,8,13)              5.7077500       0.0000000       0.0000000           RCH-1      
    294     (1,8,14)              5.7077500       0.0000000       0.0000000           RCH-1      
    295     (1,8,15)              5.7077500       0.0000000       0.0000000           RCH-1      
    296     (1,8,16)              5.7077500       0.0000000       0.0000000           RCH-1      
    297     (1,8,17)              5.7077500       0.0000000       0.0000000           RCH-1      
    298     (1,8,18)              5.7077500       0.0000000       0.0000000           RCH-1      
    299     (1,8,19)              5.7077500       0.0000000       0.0000000           RCH-1      
    300     (1,8,20)              5.7077500       0.0000000       0.0000000           RCH-1      
    301     (1,8,21)              5.7077500       0.0000000       0.0000000           RCH-1      
    302     (1,8,22)              5.7077500       0.0000000       0.0000000           RCH-1      
    303     (1,8,23)              5.7077500       0.0000000       0.0000000           RCH-1      
    304     (1,8,24)              5.7077500       0.0000000       0.0000000           RCH-1      
    305     (1,8,25)              5.7077500       0.0000000       0.0000000           RCH-1      
    306     (1,8,26)              5.7077500       0.0000000       0.0000000           RCH-1      
    307     (1,8,27)              5.7077500       0.0000000       0.0000000           RCH-1      
    308     (1,8,28)              5.7077500       0.0000000       0.0000000           RCH-1      
    309     (1,8,29)              5.7077500       0.0000000       0.0000000           RCH-1      
    310     (1,8,30)              5.7077500       0.0000000       0.0000000           RCH-1      
    311     (1,8,31)              5.7077500       0.0000000       0.0000000           RCH-1      
    312     (1,8,32)              5.7077500       0.0000000       0.0000000           RCH-1      
    313     (1,8,33)              5.7077500       0.0000000       0.0000000           RCH-1      
    314     (1,8,34)              5.7077500       0.0000000       0.0000000           RCH-1      
    315     (1,8,35)              11.415500       0.0000000       0.0000000           RCH-1      
    316     (1,8,36)              22.831000       0.0000000       0.0000000           RCH-1      
    317     (1,8,37)              45.662000       0.0000000       0.0000000           RCH-1      
    318     (1,8,38)              91.324000       0.0000000       0.0000000           RCH-1      
    319     (1,8,39)              182.64800       0.0000000       0.0000000           RCH-1      
    320     (1,8,40)              0.0000000       0.0000000       0.0000000           RCH-1      
    321     (1,9,1)               0.0000000       0.0000000       0.0000000           RCH-1      
    322     (1,9,2)               91.324000       0.0000000       0.0000000           RCH-1      
    323     (1,9,3)               45.662000       0.0000000       0.0000000           RCH-1      
    324     (1,9,4)               22.831000       0.0000000       0.0000000           RCH-1      
    325     (1,9,5)               11.415500       0.0000000       0.0000000           RCH-1      
    326     (1,9,6)               5.7077500       0.0000000       0.0000000           RCH-1      
    355     (1,9,35)              5.7077500       0.0000000       0.0000000           RCH-1      
    356     (1,9,36)              11.415500       0.0000000       0.0000000           RCH-1      
    357     (1,9,37)              22.831000       0.0000000       0.0000000           RCH-1      
    358     (1,9,38)              45.662000       0.0000000       0.0000000           RCH-1      
    359     (1,9,39)              91.324000       0.0000000       0.0000000           RCH-1      
    360     (1,9,40)              0.0000000       0.0000000       0.0000000           RCH-1      
    361     (1,10,1)              0.0000000       0.0000000       0.0000000           RCH-1      
    362     (1,10,2)              91.324000       0.0000000       0.0000000           RCH-1      
    363     (1,10,3)              45.662000       0.0000000       0.0000000           RCH-1      
    364     (1,10,4)              22.831000       0.0000000       0.0000000           RCH-1      
    365     (1,10,5)              11.415500       0.0000000       0.0000000           RCH-1      
    366     (1,10,6)              5.7077500       0.0000000       0.0000000           RCH-1      
    395     (1,10,35)             5.7077500       0.0000000       0.0000000           RCH-1      
    396     (1,10,36)             11.415500       0.0000000       0.0000000           RCH-1      
    397     (1,10,37)             22.831000       0.0000000       0.0000000           RCH-1      
    398     (1,10,38)             45.662000       0.0000000       0.0000000           RCH-1      
    399     (1,10,39)             91.324000       0.0000000       0.0000000           RCH-1      
    400     (1,10,40)             0.0000000       0.0000000       0.0000000           RCH-1      
    401     (1,11,1)              0.0000000       0.0000000       0.0000000           RCH-1      
    402     (1,11,2)              91.324000       0.0000000       0.0000000           RCH-1      
    403     (1,11,3)              45.662000       0.0000000       0.0000000           RCH-1      
    404     (1,11,4)              22.831000       0.0000000       0.0000000           RCH-1      
    405     (1,11,5)              11.415500       0.0000000       0.0000000           RCH-1      
    406     (1,11,6)              5.7077500       0.0000000       0.0000000           RCH-1      
    435     (1,11,35)             5.7077500       0.0000000       0.0000000           RCH-1      
    436     (1,11,36)             11.415500       0.0000000       0.0000000           RCH-1      
    437     (1,11,37)             22.831000       0.0000000       0.0000000           RCH-1      
    438     (1,11,38)             45.662000       0.0000000       0.0000000           RCH-1      
    439     (1,11,39)             91.324000       0.0000000       0.0000000           RCH-1      
    440     (1,11,40)             0.0000000       0.0000000       0.0000000           RCH-1      
    441     (1,12,1)              0.0000000       0.0000000       0.0000000           RCH-1      
    442     (1,12,2)              91.324000       0.0000000       0.0000000           RCH-1      
    443     (1,12,3)              45.662000       0.0000000       0.0000000           RCH-1      
    444     (1,12,4)              22.831000       0.0000000       0.0000000           RCH-1      
    445     (1,12,5)              11.415500       0.0000000       0.0000000           RCH-1      
    446     (1,12,6)              5.7077500       0.0000000       0.0000000           RCH-1      
    475     (1,12,35)             5.7077500       0.0000000       0.0000000           RCH-1      
    476     (1,12,36)             11.415500       0.0000000       0.0000000           RCH-1      
    477     (1,12,37)             22.831000       0.0000000       0.0000000           RCH-1      
    478     (1,12,38)             45.662000       0.0000000       0.0000000           RCH-1      
    479     (1,12,39)             91.324000       0.0000000       0.0000000           RCH-1      
    480     (1,12,40)             0.0000000       0.0000000       0.0000000           RCH-1      
    481     (1,13,1)              0.0000000       0.0000000       0.0000000           RCH-1      
    482     (1,13,2)              91.324000       0.0000000       0.0000000           RCH-1      
    483     (1,13,3)              45.662000       0.0000000       0.0000000           RCH-1      
    484     (1,13,4)              22.831000       0.0000000       0.0000000           RCH-1      
    485     (1,13,5)              11.415500       0.0000000       0.0000000           RCH-1      
    486     (1,13,6)              5.7077500       0.0000000       0.0000000           RCH-1      
    515     (1,13,35)             5.7077500       0.0000000       0.0000000           RCH-1      
    516     (1,13,36)             11.415500       0.0000000       0.0000000           RCH-1      
    517     (1,13,37)             22.831000       0.0000000       0.0000000           RCH-1      
    518     (1,13,38)             45.662000       0.0000000       0.0000000           RCH-1      
    519     (1,13,39)             91.324000       0.0000000       0.0000000           RCH-1      
    520     (1,13,40)             0.0000000       0.0000000       0.0000000           RCH-1      
    521     (1,14,1)              0.0000000       0.0000000       0.0000000           RCH-1      
    522     (1,14,2)              91.324000       0.0000000       0.0000000           RCH-1      
    523     (1,14,3)              45.662000       0.0000000       0.0000000           RCH-1      
    524     (1,14,4)              22.831000       0.0000000       0.0000000           RCH-1      
    525     (1,14,5)              11.415500       0.0000000       0.0000000           RCH-1      
    526     (1,14,6)              5.7077500       0.0000000       0.0000000           RCH-1      
    555     (1,14,35)             5.7077500       0.0000000       0.0000000           RCH-1      
    556     (1,14,36)             11.415500       0.0000000       0.0000000           RCH-1      
    557     (1,14,37)             22.831000       0.0000000       0.0000000           RCH-1      
    558     (1,14,38)             45.662000       0.0000000       0.0000000           RCH-1      
    559     (1,14,39)             91.324000       0.0000000       0.0000000           RCH-1      
    560     (1,14,40)             0.0000000       0.0000000       0.0000000           RCH-1      
    561     (1,15,1)              0.0000000       0.0000000       0.0000000           RCH-1      
    562     (1,15,2)              91.324000       0.0000000       0.0000000           RCH-1      
    563     (1,15,3)              45.662000       0.0000000       0.0000000           RCH-1      
    564     (1,15,4)              22.831000       0.0000000       0.0000000           RCH-1      
    565     (1,15,5)              11.415500       0.0000000       0.0000000           RCH-1      
    566     (1,15,6)              5.7077500       0.0000000       0.0000000           RCH-1      
    595     (1,15,35)             5.7077500       0.0000000       0.0000000           RCH-1      
    596     (1,15,36)             11.415500       0.0000000       0.0000000           RCH-1      
    597     (1,15,37)             22.831000       0.0000000       0.0000000           RCH-1      
[...]
  36     3.397997E-06    7.135641E-05    1.336733E-03    4.872914E-02     1.46931         3.70206        1.000000E+30    1.000000E+30    1.000000E+30    1.000000E+30
         1.000000E+30    1.000000E+30    1.000000E+30    1.000000E+30    1.000000E+30    1.000000E+30    1.000000E+30    1.000000E+30    1.000000E+30    1.000000E+30
         1.000000E+30    1.000000E+30    1.000000E+30    1.000000E+30    1.000000E+30    1.000000E+30    1.000000E+30    1.000000E+30    1.000000E+30    1.000000E+30
         1.000000E+30    1.000000E+30    1.000000E+30    1.000000E+30     1.45136         1.02630        0.446601        2.397180E-02    1.044931E-04   -4.373129E-07
  37     3.173661E-06    6.646305E-05    1.243014E-03    5.148783E-02     1.62188         3.93814        1.000000E+30    1.000000E+30    1.000000E+30    1.000000E+30
         1.000000E+30    1.000000E+30    1.000000E+30    1.000000E+30    1.000000E+30    1.000000E+30    1.000000E+30    1.000000E+30    1.000000E+30    1.000000E+30
         1.000000E+30    1.000000E+30    1.000000E+30    1.000000E+30    1.000000E+30    1.000000E+30    1.000000E+30    1.000000E+30    1.000000E+30    1.000000E+30
         1.000000E+30    1.000000E+30    1.000000E+30    1.000000E+30     1.27672        0.892522        0.377916        2.189800E-02    1.228987E-04   -2.417648E-07
  38     2.882841E-06    6.024435E-05    1.127617E-03    5.361612E-02     1.76028         4.13282        1.000000E+30    1.000000E+30    1.000000E+30    1.000000E+30
         1.000000E+30    1.000000E+30    1.000000E+30    1.000000E+30    1.000000E+30    1.000000E+30    1.000000E+30    1.000000E+30    1.000000E+30    1.000000E+30
         1.000000E+30    1.000000E+30    1.000000E+30    1.000000E+30    1.000000E+30    1.000000E+30    1.000000E+30    1.000000E+30    1.000000E+30    1.000000E+30
         1.000000E+30    1.000000E+30    1.000000E+30    1.000000E+30     1.10841        0.764733        0.313108        1.932953E-02    1.321054E-04   -4.683551E-08
  39     2.548418E-06    5.317066E-05    9.981775E-04    5.505798E-02     1.87573         4.27429        1.000000E+30    1.000000E+30    1.000000E+30    1.000000E+30
         1.000000E+30    1.000000E+30    1.000000E+30    1.000000E+30    1.000000E+30    1.000000E+30    1.000000E+30    1.000000E+30    1.000000E+30    1.000000E+30
         1.000000E+30    1.000000E+30    1.000000E+30    1.000000E+30    1.000000E+30    1.000000E+30    1.000000E+30    1.000000E+30    1.000000E+30    1.000000E+30
         1.000000E+30    1.000000E+30    1.000000E+30    1.000000E+30    0.952329        0.647515        0.254652        1.651356E-02    1.325125E-04    1.257835E-07
  40     2.193969E-06    4.572533E-05    8.627571E-04    5.579197E-02     1.95976         4.35136        1.000000E+30    1.000000E+30    1.000000E+30    1.000000E+30
         1.000000E+30    1.000000E+30    1.000000E+30    1.000000E+30    1.000000E+30    1.000000E+30    1.000000E+30    1.000000E+30    1.000000E+30    1.000000E+30
         1.000000E+30    1.000000E+30    1.000000E+30    1.000000E+30    1.000000E+30    1.000000E+30    1.000000E+30    1.000000E+30    1.000000E+30    1.000000E+30
         1.000000E+30    1.000000E+30    1.000000E+30    1.000000E+30    0.811963        0.543566        0.204037        1.368089E-02    1.254924E-04    2.605734E-07
  41     1.841067E-06    3.834951E-05    7.288802E-04    5.582124E-02     2.00522         4.35466        1.000000E+30    1.000000E+30    1.000000E+30    1.000000E+30
         1.000000E+30    1.000000E+30    1.000000E+30    1.000000E+30    1.000000E+30    1.000000E+30    1.000000E+30    1.000000E+30    1.000000E+30    1.000000E+30
         1.000000E+30    1.000000E+30    1.000000E+30    1.000000E+30    1.000000E+30    1.000000E+30    1.000000E+30    1.000000E+30    1.000000E+30    1.000000E+30
         1.000000E+30    1.000000E+30    1.000000E+30    1.000000E+30    0.688573        0.453803        0.161781        1.101944E-02    1.130346E-04    3.497695E-07
  42     1.507312E-06    3.140174E-05    6.027713E-04    5.516045E-02     2.00702         4.27802        1.000000E+30    1.000000E+30    1.000000E+30    1.000000E+30
         1.000000E+30    1.000000E+30    1.000000E+30    1.000000E+30    1.000000E+30    1.000000E+30    1.000000E+30    1.000000E+30    1.000000E+30    1.000000E+30
         1.000000E+30    1.000000E+30    1.000000E+30    1.000000E+30    1.000000E+30    1.000000E+30    1.000000E+30    1.000000E+30    1.000000E+30    1.000000E+30
         1.000000E+30    1.000000E+30    1.000000E+30    1.000000E+30    0.581653        0.377722        0.127594        8.659241E-03    9.734709E-05    3.931889E-07
  43     1.205288E-06    2.513618E-05    4.888933E-04    5.382376E-02     1.96284         4.11977        1.000000E+30    1.000000E+30    1.000000E+30    1.000000E+30
         1.000000E+30    1.000000E+30    1.000000E+30    1.000000E+30    1.000000E+30    1.000000E+30    1.000000E+30    1.000000E+30    1.000000E+30    1.000000E+30
         1.000000E+30    1.000000E+30    1.000000E+30    1.000000E+30    1.000000E+30    1.000000E+30    1.000000E+30    1.000000E+30    1.000000E+30    1.000000E+30
         1.000000E+30    1.000000E+30    1.000000E+30    1.000000E+30    0.489571        0.313876        0.100612        6.669508E-03    8.050053E-05    3.966789E-07
  44     9.424035E-07    1.969921E-05    3.898090E-04    5.181732E-02     1.87333         3.88334        1.000000E+30    1.000000E+30    1.000000E+30    1.000000E+30
         1.000000E+30    1.000000E+30    1.000000E+30    1.000000E+30    1.000000E+30    1.000000E+30    1.000000E+30    1.000000E+30    1.000000E+30    1.000000E+30
         1.000000E+30    1.000000E+30    1.000000E+30    1.000000E+30    1.000000E+30    1.000000E+30    1.000000E+30    1.000000E+30    1.000000E+30    1.000000E+30
         1.000000E+30    1.000000E+30    1.000000E+30    1.000000E+30    0.410216        0.260372        7.965755E-02    5.065594E-03    6.417686E-05    3.698150E-07
  45     7.214197E-07    1.514055E-05    3.063250E-04    4.913896E-02     1.74201         3.57742        1.000000E+30    1.000000E+30    1.000000E+30    1.000000E+30
         1.000000E+30    1.000000E+30    1.000000E+30    1.000000E+30    1.000000E+30    1.000000E+30    1.000000E+30    1.000000E+30    1.000000E+30    1.000000E+30
         1.000000E+30    1.000000E+30    1.000000E+30    1.000000E+30    1.000000E+30    1.000000E+30    1.000000E+30    1.000000E+30    1.000000E+30    1.000000E+30
         1.000000E+30    1.000000E+30    1.000000E+30    1.000000E+30    0.341502        0.215286        6.347145E-02    3.822077E-03    4.954294E-05    3.235089E-07
  46     5.414119E-07    1.143356E-05    2.378339E-04    4.578611E-02     1.57483         3.21421        1.000000E+30    1.000000E+30    1.000000E+30    1.000000E+30
         1.000000E+30    1.000000E+30    1.000000E+30    1.000000E+30    1.000000E+30    1.000000E+30    1.000000E+30    1.000000E+30    1.000000E+30    1.000000E+30
         1.000000E+30    1.000000E+30    1.000000E+30    1.000000E+30    1.000000E+30    1.000000E+30    1.000000E+30    1.000000E+30    1.000000E+30    1.000000E+30
         1.000000E+30    1.000000E+30    1.000000E+30    1.000000E+30    0.281693        0.176950        5.088682E-02    2.888128E-03    3.723972E-05    2.680286E-07
  47     3.988998E-07    8.499361E-06    1.827614E-04    4.177238E-02     1.37962         2.80599        1.000000E+30    1.000000E+30    1.000000E+30    1.000000E+30
         1.000000E+30    1.000000E+30    1.000000E+30    1.000000E+30    1.000000E+30    1.000000E+30    1.000000E+30    1.000000E+30    1.000000E+30    1.000000E+30
         1.000000E+30    1.000000E+30    1.000000E+30    1.000000E+30    1.000000E+30    1.000000E+30    1.000000E+30    1.000000E+30    1.000000E+30    1.000000E+30
         1.000000E+30    1.000000E+30    1.000000E+30    1.000000E+30    0.229529        0.144090        4.093572E-02    2.201911E-03    2.745561E-05    2.116970E-07
  48     2.889366E-07    6.230095E-06    1.390320E-04    3.715211E-02     1.16577         2.35845        1.000000E+30    1.000000E+30    1.000000E+30    1.000000E+30
         1.000000E+30    1.000000E+30    1.000000E+30    1.000000E+30    1.000000E+30    1.000000E+30    1.000000E+30    1.000000E+30    1.000000E+30    1.000000E+30
         1.000000E+30    1.000000E+30    1.000000E+30    1.000000E+30    1.000000E+30    1.000000E+30    1.000000E+30    1.000000E+30    1.000000E+30    1.000000E+30
         1.000000E+30    1.000000E+30    1.000000E+30    1.000000E+30    0.184204        0.115839        3.288975E-02    1.701979E-03    2.004579E-05    1.603038E-07
  49     2.060216E-07    4.508571E-06    1.044887E-04    3.204854E-02    0.944565         1.86483        1.000000E+30    1.000000E+30    1.000000E+30    1.000000E+30
         1.000000E+30    1.000000E+30    1.000000E+30    1.000000E+30    1.000000E+30    1.000000E+30    1.000000E+30    1.000000E+30    1.000000E+30    1.000000E+30
         1.000000E+30    1.000000E+30    1.000000E+30    1.000000E+30    1.000000E+30    1.000000E+30    1.000000E+30    1.000000E+30    1.000000E+30    1.000000E+30
         1.000000E+30    1.000000E+30    1.000000E+30    1.000000E+30    0.145239        9.165345E-02    2.624966E-02    1.334757E-03    1.466299E-05    1.171085E-07
  50     1.447726E-07    3.222750E-06    7.722256E-05    2.667708E-02    0.730169         1.37035        1.000000E+30    1.000000E+30    1.000000E+30    1.000000E+30
         1.000000E+30    1.000000E+30    1.000000E+30    1.000000E+30    1.000000E+30    1.000000E+30    1.000000E+30    1.000000E+30    1.000000E+30    1.000000E+30
         1.000000E+30    1.000000E+30    1.000000E+30    1.000000E+30    1.000000E+30    1.000000E+30    1.000000E+30    1.000000E+30    1.000000E+30    1.000000E+30
         1.000000E+30    1.000000E+30    1.000000E+30    1.000000E+30    0.112313        7.119574E-02    2.070229E-02    1.058229E-03    1.087448E-05    8.323611E-08
  51     1.003603E-07    2.275292E-06    5.579753E-05    2.133719E-02    0.538005        0.950475        1.000000E+30    1.000000E+30    1.000000E+30    1.000000E+30
         1.000000E+30    1.000000E+30    1.000000E+30    1.000000E+30    1.000000E+30    1.000000E+30    1.000000E+30    1.000000E+30    1.000000E+30    1.000000E+30
         1.000000E+30    1.000000E+30    1.000000E+30    1.000000E+30    1.000000E+30    1.000000E+30    1.000000E+30    1.000000E+30    1.000000E+30    1.000000E+30
         1.000000E+30    1.000000E+30    1.000000E+30    1.000000E+30    8.510653E-02    5.421153E-02    1.606396E-02    8.425403E-04    8.251345E-06    5.826419E-08
  52     6.874170E-08    1.590695E-06    3.964499E-05    1.636449E-02    0.380212        0.647889        1.000000E+30    1.000000E+30    1.000000E+30    1.000000E+30
         1.000000E+30    1.000000E+30    1.000000E+30    1.000000E+30    1.000000E+30    1.000000E+30    1.000000E+30    1.000000E+30    1.000000E+30    1.000000E+30
         1.000000E+30    1.000000E+30    1.000000E+30    1.000000E+30    1.000000E+30    1.000000E+30    1.000000E+30    1.000000E+30    1.000000E+30    1.000000E+30
         1.000000E+30    1.000000E+30    1.000000E+30    1.000000E+30    6.320139E-02    4.044158E-02    1.222697E-02    6.687212E-04    6.430156E-06    4.086672E-08
  53     4.669948E-08    1.121675E-06    3.209337E-05    1.207178E-02    0.262174        0.456636        1.000000E+30    1.000000E+30    1.000000E+30    1.000000E+30
         1.000000E+30    1.000000E+30    1.000000E+30    1.000000E+30    1.000000E+30    1.000000E+30    1.000000E+30    1.000000E+30    1.000000E+30    1.000000E+30
         1.000000E+30    1.000000E+30    1.000000E+30    1.000000E+30    1.000000E+30    1.000000E+30    1.000000E+30    1.000000E+30    1.000000E+30    1.000000E+30
         1.000000E+30    1.000000E+30    1.000000E+30    1.000000E+30    4.609160E-02    2.959752E-02    9.127808E-03    5.284965E-04    5.205685E-06    3.014273E-08
  54     2.491697E-08    6.813718E-07    2.852057E-05    6.588619E-03    0.141731        0.294300        0.364521        0.445308        0.563235        0.728055    
         0.766948        0.543753        0.719371        0.501411        0.419587        0.530902        0.667118        0.755687        0.794750        0.800889    
         0.755763        0.668423        0.563660        0.458664        0.362844        0.280584        0.213204        0.160123        0.119663        8.963697E-02
         6.777336E-02    5.200291E-02    4.060872E-02    3.227208E-02    2.566966E-02    1.650649E-02    5.201119E-03    3.288830E-04    3.521086E-06    1.913434E-08
  55     1.268743E-08    4.805006E-07    2.644200E-05    2.321965E-03    6.060035E-02    0.174277        0.248001        0.336731        0.419984        0.432293    
         0.344903        0.221298        0.135156        9.506239E-02    8.927692E-02    0.110042        0.144302        0.182028        0.218046        0.246645    
         0.252603        0.238093        0.210378        0.176728        0.142549        0.111237        8.454435E-02    6.303463E-02    4.648243E-02    3.421581E-02
         2.538114E-02    1.912855E-02    1.472133E-02    1.158196E-02    9.157338E-03    5.861472E-03    1.863013E-03    1.301704E-04    1.608514E-06    9.336685E-09
  56     1.557098E-08    8.118386E-07    4.723009E-05    1.839360E-03    2.632272E-02    8.117541E-02    0.124725        0.148781        0.155512        0.138591    
         0.105111        7.017876E-02    4.416318E-02    2.910401E-02    2.324063E-02    2.428148E-02    2.957449E-02    3.677192E-02    4.386997E-02    4.904386E-02
         5.081044E-02    4.903049E-02    4.447605E-02    3.825338E-02    3.141920E-02    2.479657E-02    1.892046E-02    1.405584E-02    1.025377E-02    7.421896E-03
         5.392504E-03    3.976876E-03    3.001329E-03    2.325389E-03    1.818712E-03    1.150371E-03    3.613601E-04    2.731986E-05    3.939798E-07    2.664764E-09
  57     1.844884E-08    9.893215E-07    4.780769E-05    1.033684E-03    8.062729E-03    2.158836E-02    3.051729E-02    3.306709E-02    3.199264E-02    2.759555E-02
         2.135753E-02    1.510511E-02    1.004671E-02    6.595218E-03    4.677556E-03    4.001691E-03    4.159317E-03    4.747705E-03    5.425939E-03    5.930514E-03
         6.097982E-03    5.894709E-03    5.381416E-03    4.663807E-03    3.854905E-03    3.052067E-03    2.325473E-03    1.715136E-03    1.234082E-03    8.752695E-04
         6.197772E-04    4.442004E-04    3.260145E-04    2.465699E-04    1.890569E-04    1.165867E-04    3.526230E-05    2.775277E-06    4.568516E-08    3.636901E-10
  58     7.569211E-09    3.639570E-07    1.335941E-05    2.015951E-04    1.174082E-03    2.771297E-03    3.638965E-03    3.778487E-03    3.569085E-03    3.086880E-03
         2.457522E-03    1.814830E-03    1.256169E-03    8.318828E-04    5.535851E-04    4.044439E-04    3.497073E-04    3.506506E-04    3.739682E-04    3.955289E-04
         4.012995E-04    3.866758E-04    3.536239E-04    3.075763E-04    2.550820E-04    2.022490E-04    1.538089E-04    1.126999E-04    8.009191E-05    5.573560E-05
         3.847297E-05    2.674933E-05    1.901279E-05    1.395355E-05    1.041352E-05    6.173439E-06    1.743686E-06    1.348527E-07    2.414097E-09    2.212815E-11
  59     1.401961E-09    5.926510E-08    1.817477E-06    2.307244E-05    1.173394E-04    2.571045E-04    3.242619E-04    3.314819E-04    3.122324E-04    2.731395E-04
         2.225071E-04    1.690706E-04    1.200616E-04    8.030184E-05    5.190215E-05    3.437642E-05    2.537608E-05    2.189110E-05    2.121283E-05    2.138172E-05
         2.124745E-05    2.032624E-05    1.857442E-05    1.618722E-05    1.345814E-05    1.068713E-05    8.122087E-06    5.927324E-06    4.176598E-06    2.866143E-06
         1.939533E-06    1.315156E-06    9.089814E-07    6.489571E-07    4.723250E-07    2.693686E-07    7.085803E-08    5.186889E-09    9.453757E-11    9.536007E-13
  60     1.643617E-10    6.488182E-09    1.816437E-07    2.114268E-06    1.002851E-05    2.108852E-05    2.611758E-05    2.662217E-05    2.520385E-05    2.232700E-05
         1.851580E-05    1.435034E-05    1.037238E-05    7.002152E-06    4.471720E-06    2.800665E-06    1.841259E-06    1.371963E-06    1.181582E-06    1.113352E-06
         1.072436E-06    1.013534E-06    9.231160E-07    8.048951E-07    6.703775E-07    5.331240E-07    4.051688E-07    2.949598E-07    2.066196E-07    1.403470E-07
         9.354193E-08    6.217737E-08    4.199400E-08    2.929137E-08    2.086591E-08    1.151817E-08    2.858895E-09    1.975672E-10    3.527493E-12    3.694187E-14
  61     1.354853E-11    5.441910E-10    1.471709E-08    1.641392E-07    7.522120E-07    1.554421E-06    1.915838E-06    1.965270E-06    1.878671E-06    1.688800E-06
         1.426332E-06    1.119307E-06    8.229122E-07    5.643513E-07    3.564701E-07    2.168059E-07    1.323416E-07    8.722429E-08    6.536744E-08    5.625497E-08
         5.180872E-08    4.808736E-08    4.345843E-08    3.789602E-08    3.167241E-08    2.530611E-08    1.916684E-08    1.394774E-08    9.758661E-09    6.608173E-09
         4.322848E-09    2.826294E-09    1.873818E-09    1.282399E-09    8.925883E-10    4.785496E-10    1.135958E-10    7.503371E-12    1.302972E-13    1.381376E-15

 CONCENTRATION WILL BE SAVED ON UNIT 1054 AT END OF TIME STEP  500, STRESS PERIOD    1


  MASS BUDGET FOR ENTIRE MODEL AT END OF TIME STEP  500, STRESS PERIOD   1
  ---------------------------------------------------------------------------------------------------

     CUMULATIVE MASS      M       RATES FOR THIS TIME STEP      M/T          PACKAGE NAME    
     ------------------                 ------------------------                     ----------------

           IN:                                      IN:
           ---                                      ---
     STORAGE-AQUEOUS =   440522913.9630       STORAGE-AQUEOUS =       84079.9863     MST                              
      STORAGE-SORBED =   439348186.1924        STORAGE-SORBED =       83855.7730     MST                              
                RCHA =           0.0000                  RCHA =           0.0000     SSM_RCH-1                        
                 CHD =           0.0000                   CHD =           0.0000     SSM_CHD-1                        
        FLOW-JA-FACE =     6850327.5808          FLOW-JA-FACE =        5347.4544     GWT-GWT_2                        

            TOTAL IN =   886721427.7362              TOTAL IN =      173283.2137

          OUT:                                     OUT:
          ----                                     ----
     STORAGE-AQUEOUS =   122641241.7251       STORAGE-AQUEOUS =       12263.2642     MST                              
      STORAGE-SORBED =   122314198.4139        STORAGE-SORBED =       12230.5622     MST                              
                RCHA =           0.0000                  RCHA =           0.0000     SSM_RCH-1                        
                 CHD =           9.9710                   CHD =       4.9662E-02     SSM_CHD-1                        
        FLOW-JA-FACE =   641765977.6262          FLOW-JA-FACE =      148789.3376     GWT-GWT_2                        

           TOTAL OUT =   886721427.7362             TOTAL OUT =      173283.2137

            IN - OUT =      -2.2650E-06              IN - OUT =      -2.3283E-10

 PERCENT DISCREPANCY =          -0.00     PERCENT DISCREPANCY =          -0.00




         TIME SUMMARY AT END OF TIME STEP  500 IN STRESS PERIOD    1
                    SECONDS     MINUTES      HOURS       DAYS        YEARS
                    -----------------------------------------------------------
   TIME STEP LENGTH 1.72800E+05  2880.0      48.000      2.0000     5.47570E-03
 STRESS PERIOD TIME 8.64000E+07 1.44000E+06  24000.      1000.0      2.7379    
         TOTAL TIME 8.64000E+07 1.44000E+06  24000.      1000.0      2.7379    


end timestep

