                                   MODFLOW 6
                U.S. GEOLOGICAL SURVEY MODULAR HYDROLOGIC MODEL
                       GROUNDWATER TRANSPORT MODEL (GWT)
                   VERSION 6.3.0 release candidate 07/30/2021
                               ***DEVELOP MODE***

   MODFLOW 6 compiled Oct 27 2021 07:53:31 with IFORT compiler (ver. 20.21.1)

This software is preliminary or provisional and is subject to 
revision. It is being provided to meet the need for timely best 
science. The software has not received final approval by the U.S. 
Geological Survey (USGS). No warranty, expressed or implied, is made 
by the USGS or the U.S. Government as to the functionality of the 
software and related material nor shall the fact of release 
constitute any such warranty. The software is provided on the 
condition that neither the USGS nor the U.S. Government shall be held 
liable for any damages resulting from the authorized or unauthorized 
use of the software.


System command used to initiate simulation:
E:\15_REPOS\00_BETAMI\bin\mf6.exe

MODFLOW was compiled using uniform precision.

Real Variables
  KIND: 8
  TINY (smallest non-zero value):    2.225074-308
  HUGE (largest value):    1.797693+308
  PRECISION: 15
  BIT SIZE: 64

Integer Variables
  KIND: 4
  HUGE (largest value): 2147483647
  BIT SIZE: 32

Long Integer Variables
  KIND: 8
  HUGE (largest value): 9223372036854775807
  BIT SIZE: 64

Logical Variables
  KIND: 4
  BIT SIZE: 32
 

 OPENED gwt-p07-mf6.dis
 FILE TYPE:DIS6                   UNIT 1013   STATUS:OLD                 
 FORMAT:FORMATTED              ACCESS:SEQUENTIAL          
 ACTION:READ                


 OPENED gwt-p07-mf6.ic
 FILE TYPE:IC6                    UNIT 1014   STATUS:OLD                 
 FORMAT:FORMATTED              ACCESS:SEQUENTIAL          
 ACTION:READ                


 OPENED gwt-p07-mf6.adv
 FILE TYPE:ADV6                   UNIT 1015   STATUS:OLD                 
 FORMAT:FORMATTED              ACCESS:SEQUENTIAL          
 ACTION:READ                


 OPENED gwt-p07-mf6.dsp
 FILE TYPE:DSP6                   UNIT 1016   STATUS:OLD                 
 FORMAT:FORMATTED              ACCESS:SEQUENTIAL          
 ACTION:READ                


 OPENED gwt-p07-mf6.mst
 FILE TYPE:MST6                   UNIT 1017   STATUS:OLD                 
 FORMAT:FORMATTED              ACCESS:SEQUENTIAL          
 ACTION:READ                


 OPENED gwt-p07-mf6.ssm
 FILE TYPE:SSM6                   UNIT 1018   STATUS:OLD                 
 FORMAT:FORMATTED              ACCESS:SEQUENTIAL          
 ACTION:READ                


 OPENED gwt-p07-mf6.oc
 FILE TYPE:OC6                    UNIT 1019   STATUS:OLD                 
 FORMAT:FORMATTED              ACCESS:SEQUENTIAL          
 ACTION:READ                

 NAMEFILE OPTIONS:
    FLOWS WILL BE SAVED TO BUDGET FILE SPECIFIED IN OUTPUT CONTROL

 DIS -- STRUCTURED GRID DISCRETIZATION PACKAGE, VERSION 2 : 3/27/2014 - INPUT READ FROM UNIT 1013


 # File generated by Flopy version 3.9.1 on 02/27/2025 at 15:37:28.
 PROCESSING DISCRETIZATION OPTIONS
 END OF DISCRETIZATION OPTIONS
 MODEL LENGTH UNIT IS UNDEFINED
 PROCESSING DISCRETIZATION DIMENSIONS
    NLAY =       8
    NROW =      15
    NCOL =      21
 END OF DISCRETIZATION DIMENSIONS
 PROCESSING GRIDDATA

                     DELR =   10.00000    

                     DELC =   10.00000    

 TOP ELEVATION OF LAYER 1 =   0.000000    

   MODEL LAYER BOTTOM EL. =  -10.00000     FOR LAYER 1

   MODEL LAYER BOTTOM EL. =  -20.00000     FOR LAYER 2

   MODEL LAYER BOTTOM EL. =  -30.00000     FOR LAYER 3

   MODEL LAYER BOTTOM EL. =  -40.00000     FOR LAYER 4

   MODEL LAYER BOTTOM EL. =  -50.00000     FOR LAYER 5

   MODEL LAYER BOTTOM EL. =  -60.00000     FOR LAYER 6

   MODEL LAYER BOTTOM EL. =  -70.00000     FOR LAYER 7

   MODEL LAYER BOTTOM EL. =  -80.00000     FOR LAYER 8

                  IDOMAIN = 1
 END PROCESSING GRIDDATA

 FMI -- FLOW MODEL INTERFACE, VERSION 1, 8/29/2017
  FLOWS PROVIDED BY A GWF MODEL IN THIS SIMULATION
 # File generated by Flopy version 3.9.1 on 02/27/2025 at 15:37:28.
 PROCESSING DISPERSION OPTIONS
    XT3D FORMULATION HAS BEEN SHUT OFF.
 END OF DISPERSION OPTIONS

 IC -- INITIAL CONDITIONS PACKAGE, VERSION 8, 3/28/2015 INPUT READ FROM UNIT 1014
 # File generated by Flopy version 3.9.1 on 02/27/2025 at 15:37:28.
 PROCESSING IC OPTIONS
 END OF IC OPTIONS
 PROCESSING GRIDDATA

 INITIAL CONCENTRATION =   0.000000    
 END PROCESSING GRIDDATA

 MST -- MOBILE STORAGE AND TRANSFER PACKAGE, VERSION 1, 7/29/2020 INPUT READ FROM UNIT 1017


 # File generated by Flopy version 3.9.1 on 02/27/2025 at 15:37:28.
 PROCESSING MOBILE STORAGE AND TRANSFER OPTIONS
 END OF MOBILE STORAGE AND TRANSFER OPTIONS
 PROCESSING GRIDDATA

   MOBILE DOMAIN POROSITY =  0.2000000    
 END PROCESSING GRIDDATA

 ADV-- ADVECTION PACKAGE, VERSION 1, 8/25/2017 INPUT READ FROM UNIT 1015


 # File generated by Flopy version 3.9.1 on 02/27/2025 at 15:37:28.
 PROCESSING ADVECTION OPTIONS
    ADVECTION WEIGHTING SCHEME HAS BEEN SET TO: TVD
 SELECTED ADVECTION SCHEME RESULTS IN AN ASYMMETRIC MATRIX.
 END OF ADVECTION OPTIONS

 DSP-- DISPERSION PACKAGE, VERSION 1, 1/24/2018 INPUT READ FROM UNIT 1016


 PROCESSING GRIDDATA

                      ALH =   10.00000    

                     ATH1 =   3.000000    
 END PROCESSING GRIDDATA

 SSM -- SOURCE-SINK MIXING PACKAGE, VERSION 1, 8/25/2017 INPUT READ FROM UNIT 1018


 # File generated by Flopy version 3.9.1 on 02/27/2025 at 15:37:28.
 PROCESSING SSM OPTIONS
 END OF SSM OPTIONS
 PROCESSING SOURCES
 AUX SOURCE DETECTED.
    USING AUX COLUMN 1 IN PACKAGE WEL-1
 AUX SOURCE DETECTED.
    USING AUX COLUMN 1 IN PACKAGE CHD-1
 END PROCESSING SOURCES
 OPTIONAL FILEINPUT BLOCK NOT FOUND.  CONTINUING.
      THE LAST TIME STEP WILL BE PRINTED
      THE LAST TIME STEP WILL BE PRINTED
 # File generated by Flopy version 3.9.1 on 02/27/2025 at 15:37:28.

 PROCESSING OC OPTIONS

    BUDGET INFORMATION WILL BE WRITTEN TO:
      UNIT NUMBER: 1025
      FILE NAME: gwt-p07-mf6.cbc

 OPENED gwt-p07-mf6.cbc
 FILE TYPE:DATA(BINARY)   UNIT 1025   STATUS:REPLACE             
 FORMAT:UNFORMATTED            ACCESS:STREAM              
 ACTION:READWRITE           

    CONCENTRATION INFORMATION WILL BE WRITTEN TO:
      UNIT NUMBER: 1026
      FILE NAME: gwt-p07-mf6.ucn

 OPENED gwt-p07-mf6.ucn
 FILE TYPE:DATA(BINARY)   UNIT 1026   STATUS:REPLACE             
 FORMAT:UNFORMATTED            ACCESS:STREAM              
 ACTION:READWRITE           

 END OF OC OPTIONS

start timestep kper="1" kstp="1" mode="normal"


 BEGIN READING OUTPUT CONTROL FOR STRESS PERIOD 1
      THE LAST TIME STEP WILL BE SAVED
      THE LAST TIME STEP WILL BE SAVED
      THE LAST TIME STEP WILL BE PRINTED
      THE LAST TIME STEP WILL BE PRINTED

 END READING OUTPUT CONTROL FOR STRESS PERIOD 1

end timestep


start timestep kper="1" kstp="2" mode="normal"


end timestep


start timestep kper="1" kstp="3" mode="normal"


end timestep


start timestep kper="1" kstp="4" mode="normal"


end timestep


start timestep kper="1" kstp="5" mode="normal"


end timestep


start timestep kper="1" kstp="6" mode="normal"


end timestep


start timestep kper="1" kstp="7" mode="normal"


end timestep


start timestep kper="1" kstp="8" mode="normal"


end timestep


start timestep kper="1" kstp="9" mode="normal"


end timestep


start timestep kper="1" kstp="10" mode="normal"

 UBDSV1 SAVING     FLOW-JA-FACE ON UNIT   1025 AT TIME STEP     10, STRESS PERIOD      1
 UBDSV1 SAVING  STORAGE-AQUEOUS ON UNIT   1025 AT TIME STEP     10, STRESS PERIOD      1
 UBDSV06 SAVING  SOURCE-SINK MIX IN MODEL GWT-P07-MF6      PACKAGE GWT-P07-MF6     CONNECTED TO MODEL GWT-P07-MF6      PACKAGE SSM              ON UNIT   1025 AT TIME STEP     10, STRESS PERIOD      1
1
  CONCENTRATION IN LAYER   1 AT END OF TIME STEP  10 IN STRESS PERIOD    1
  ---------------------------------------------------------------------------

                1               2               3               4               5               6               7               8               9              10
               11              12              13              14              15              16              17              18              19              20
               21
 ................................................................................................................................................................
   1     3.687496E-11    6.070984E-11    1.002318E-10    1.454333E-10    1.804526E-10    1.879373E-10    1.740993E-10    1.411133E-10    9.992664E-11    6.265840E-11
         3.529970E-11    1.810430E-11    8.550865E-12    3.756198E-12    1.547564E-12    6.022898E-13    2.227625E-13    7.870554E-14    2.668120E-14    8.720502E-15
         2.870233E-15
   2     2.740123E-10    4.529847E-10    7.503720E-10    1.083939E-09    1.323560E-09    1.345361E-09    1.216487E-09    9.514464E-10    6.475562E-10    3.896634E-10
         2.105956E-10    1.036614E-10    4.703226E-11    1.986941E-11    7.882819E-12    2.957942E-12    1.056141E-12    3.606530E-13    1.182990E-13    3.744885E-14
         1.191000E-14
   3     2.040760E-09    3.390460E-09    5.639971E-09    8.110620E-09    9.725891E-09    9.680044E-09    8.517522E-09    6.427472E-09    4.208267E-09    2.433590E-09
         1.264152E-09    5.985793E-10    2.615616E-10    1.065669E-10    4.082986E-11    1.481603E-11    5.122355E-12    1.695770E-12    5.398551E-13    1.660260E-13
         5.126921E-14
   4     1.343825E-08    2.246879E-08    3.758413E-08    5.378124E-08    6.308625E-08    6.157187E-08    5.242044E-08    3.806148E-08    2.391548E-08    1.326467E-08
         6.612986E-09    3.008971E-09    1.265423E-09    4.969936E-10    1.838506E-10    6.451173E-11    2.159819E-11    6.933198E-12    2.142891E-12    6.405082E-13
         1.922231E-13
   5     7.545888E-08    1.272089E-07    2.143281E-07    3.049828E-07    3.488588E-07    3.330033E-07    2.734234E-07    1.903607E-07    1.144678E-07    6.076980E-08
         2.903492E-08    1.268302E-08    5.130278E-09    1.941662E-09    6.934078E-10    2.352868E-10    7.629436E-11    2.375494E-11    7.130960E-12    2.072611E-12
         6.049365E-13
   6     3.419791E-07    5.826360E-07    9.908257E-07    1.400479E-06    1.557016E-06    1.449264E-06    1.143332E-06    7.607329E-07    4.367786E-07    2.216507E-07
         1.014267E-07    4.252832E-08    1.655026E-08    6.039350E-09    2.083724E-09    6.843793E-10    2.151715E-10    6.506135E-11    1.899439E-11    5.376165E-12
         1.528624E-12
   7     1.134323E-06    1.958572E-06    3.370042E-06    4.722741E-06    5.089725E-06    4.605287E-06    3.479368E-06    2.208404E-06    1.210296E-06    5.875652E-07
         2.579226E-07    1.040362E-07    3.905206E-08    1.377966E-08    4.607633E-09    1.469642E-09    4.495519E-10    1.324733E-10    3.774945E-11    1.044352E-11
         2.904234E-12
   8     2.221000E-06    3.893342E-06    6.789282E-06    9.414331E-06    9.849710E-06    8.661848E-06    6.284640E-06    3.827853E-06    2.018564E-06    9.462339E-07
         4.024706E-07    1.578064E-07    5.774610E-08    1.991360E-08    6.521978E-09    2.041465E-09    6.138686E-10    1.780902E-10    5.002877E-11    1.366070E-11
         3.752257E-12
   9     1.134323E-06    1.958572E-06    3.370042E-06    4.722741E-06    5.089725E-06    4.605287E-06    3.479368E-06    2.208404E-06    1.210296E-06    5.875652E-07
         2.579226E-07    1.040362E-07    3.905205E-08    1.377967E-08    4.607640E-09    1.469646E-09    4.495522E-10    1.324725E-10    3.774879E-11    1.044318E-11
         2.904111E-12
  10     3.419791E-07    5.826360E-07    9.908258E-07    1.400479E-06    1.557016E-06    1.449264E-06    1.143332E-06    7.607329E-07    4.367786E-07    2.216507E-07
         1.014267E-07    4.252831E-08    1.655025E-08    6.039352E-09    2.083729E-09    6.843823E-10    2.151721E-10    6.506087E-11    1.899383E-11    5.375839E-12
         1.528486E-12
  11     7.545888E-08    1.272089E-07    2.143281E-07    3.049828E-07    3.488587E-07    3.330033E-07    2.734234E-07    1.903607E-07    1.144678E-07    6.076981E-08
         2.903492E-08    1.268302E-08    5.130274E-09    1.941662E-09    6.934099E-10    2.352884E-10    7.629481E-11    2.375481E-11    7.130715E-12    2.072443E-12
         6.048532E-13
  12     1.343825E-08    2.246879E-08    3.758413E-08    5.378124E-08    6.308624E-08    6.157187E-08    5.242044E-08    3.806148E-08    2.391548E-08    1.326467E-08
         6.612986E-09    3.008970E-09    1.265422E-09    4.969933E-10    1.838511E-10    6.451224E-11    2.159840E-11    6.933192E-12    2.142820E-12    6.404496E-13
         1.921893E-13
  13     2.040760E-09    3.390460E-09    5.639971E-09    8.110619E-09    9.725891E-09    9.680044E-09    8.517523E-09    6.427472E-09    4.208267E-09    2.433590E-09
         1.264153E-09    5.985790E-10    2.615612E-10    1.065668E-10    4.082996E-11    1.481616E-11    5.122421E-12    1.695779E-12    5.398409E-13    1.660106E-13
         5.125892E-14
  14     2.740123E-10    4.529847E-10    7.503720E-10    1.083939E-09    1.323560E-09    1.345361E-09    1.216487E-09    9.514465E-10    6.475562E-10    3.896635E-10
         2.105957E-10    1.036614E-10    4.703218E-11    1.986937E-11    7.882830E-12    2.957967E-12    1.056157E-12    3.606572E-13    1.182971E-13    3.744568E-14
         1.190750E-14
  15     3.687496E-11    6.070984E-11    1.002318E-10    1.454333E-10    1.804526E-10    1.879372E-10    1.740993E-10    1.411133E-10    9.992664E-11    6.265840E-11
         3.529971E-11    1.810430E-11    8.550851E-12    3.756188E-12    1.547564E-12    6.022942E-13    2.227660E-13    7.870692E-14    2.668111E-14    8.719932E-15
         2.869676E-15
1
  CONCENTRATION IN LAYER   2 AT END OF TIME STEP  10 IN STRESS PERIOD    1
  ---------------------------------------------------------------------------

                1               2               3               4               5               6               7               8               9              10
               11              12              13              14              15              16              17              18              19              20
               21
 ................................................................................................................................................................
   1     2.331324E-10    3.854062E-10    6.384351E-10    9.222528E-10    1.126143E-09    1.144730E-09    1.035108E-09    8.096410E-10    5.511031E-10    3.316740E-10
         1.792910E-10    8.827446E-11    4.006302E-11    1.693104E-11    6.719718E-12    2.522608E-12    9.011393E-13    3.078847E-13    1.010480E-13    3.200787E-14
         1.018705E-14
   2     1.837006E-09    3.053522E-09    5.081784E-09    7.305075E-09    8.743794E-09    8.688132E-09    7.622156E-09    5.731443E-09    3.737826E-09    2.152604E-09
         1.113484E-09    5.250231E-10    2.284697E-10    9.270701E-11    3.537923E-11    1.278881E-11    4.404993E-12    1.453013E-12    4.609532E-13    1.412794E-13
         4.347917E-14
   3     1.448540E-08    2.423782E-08    4.057064E-08    5.802885E-08    6.790965E-08    6.613771E-08    5.610239E-08    4.055410E-08    2.535662E-08    1.399146E-08
         6.938606E-09    3.140447E-09    1.313772E-09    5.132979E-10    1.889072E-10    6.595087E-11    2.197013E-11    7.018071E-12    2.158684E-12    6.421698E-13
         1.917893E-13
   4     1.013178E-07    1.709875E-07    2.883712E-07    4.101169E-07    4.677153E-07    4.452340E-07    3.638958E-07    2.519363E-07    1.505678E-07    7.942346E-08
         3.769952E-08    1.635957E-08    6.573922E-09    2.471752E-09    8.769752E-10    2.956559E-10    9.525691E-11    2.947127E-11    8.791449E-12    2.539336E-12
         7.364264E-13
   5     6.065986E-07    1.035185E-06    1.763030E-06    2.489929E-06    2.756968E-06    2.556447E-06    2.004171E-06    1.323479E-06    7.536665E-07    3.791966E-07
         1.720053E-07    7.148579E-08    2.757279E-08    9.972356E-09    3.410236E-09    1.110166E-09    3.459676E-10    1.036927E-10    3.000843E-11    8.419728E-12
         2.372589E-12
   6     2.942768E-06    5.095634E-06    8.789828E-06    1.229926E-05    1.317225E-05    1.184559E-05    8.861244E-06    5.558961E-06    3.008359E-06    1.441423E-06
         6.242970E-07    2.484157E-07    9.197988E-08    3.201291E-08    1.055843E-08    3.321797E-09    1.002289E-09    2.913470E-10    8.190064E-11    2.235340E-11
         6.130439E-12
   7     1.048048E-05    1.849454E-05    3.243624E-05    4.478752E-05    4.626983E-05    4.012531E-05    2.850033E-05    1.694223E-05    8.707074E-06    3.974943E-06
         1.646053E-06    6.283450E-07    2.238794E-07    7.518877E-08    2.398898E-08    7.317050E-09    2.144735E-09    6.067296E-10    1.662644E-10    4.430478E-11
         1.187223E-11
   8     2.193299E-05    3.959016E-05    7.085674E-05    9.604654E-05    9.586648E-05    7.986832E-05    5.395357E-05    3.056223E-05    1.503258E-05    6.598576E-06
         2.638682E-06    9.763724E-07    3.383278E-07    1.108203E-07    3.456931E-08    1.033135E-08    2.972691E-09    8.268842E-10    2.231339E-10    5.862926E-11
         1.550526E-11
   9     1.048048E-05    1.849454E-05    3.243624E-05    4.478752E-05    4.626983E-05    4.012531E-05    2.850033E-05    1.694224E-05    8.707074E-06    3.974943E-06
         1.646053E-06    6.283448E-07    2.238794E-07    7.518881E-08    2.398902E-08    7.317060E-09    2.144732E-09    6.067242E-10    1.662610E-10    4.430343E-11
         1.187196E-11
  10     2.942768E-06    5.095635E-06    8.789829E-06    1.229926E-05    1.317225E-05    1.184559E-05    8.861244E-06    5.558961E-06    3.008360E-06    1.441423E-06
         6.242969E-07    2.484156E-07    9.197985E-08    3.201294E-08    1.055846E-08    3.321809E-09    1.002288E-09    2.913430E-10    8.189760E-11    2.235202E-11
         6.130054E-12
  11     6.065987E-07    1.035185E-06    1.763030E-06    2.489929E-06    2.756967E-06    2.556447E-06    2.004171E-06    1.323479E-06    7.536665E-07    3.791966E-07
         1.720053E-07    7.148574E-08    2.757277E-08    9.972364E-09    3.410249E-09    1.110172E-09    3.459682E-10    1.036912E-10    3.000702E-11    8.418984E-12
         2.372318E-12
  12     1.013178E-07    1.709875E-07    2.883712E-07    4.101169E-07    4.677152E-07    4.452340E-07    3.638958E-07    2.519363E-07    1.505678E-07    7.942347E-08
         3.769952E-08    1.635956E-08    6.573915E-09    2.471753E-09    8.769788E-10    2.956582E-10    9.525745E-11    2.947094E-11    8.791013E-12    2.539065E-12
         7.363055E-13
  13     1.448540E-08    2.423782E-08    4.057064E-08    5.802885E-08    6.790964E-08    6.613771E-08    5.610239E-08    4.055410E-08    2.535662E-08    1.399146E-08
         6.938607E-09    3.140445E-09    1.313770E-09    5.132977E-10    1.889079E-10    6.595149E-11    2.197034E-11    7.018035E-12    2.158585E-12    6.420957E-13
         1.917503E-13
  14     1.837006E-09    3.053522E-09    5.081784E-09    7.305075E-09    8.743794E-09    8.688132E-09    7.622157E-09    5.731443E-09    3.737826E-09    2.152604E-09
         1.113485E-09    5.250228E-10    2.284693E-10    9.270691E-11    3.537934E-11    1.278894E-11    4.405053E-12    1.453016E-12    4.609362E-13    1.412634E-13
         4.346924E-14
  15     2.331324E-10    3.854062E-10    6.384351E-10    9.222527E-10    1.126143E-09    1.144730E-09    1.035108E-09    8.096411E-10    5.511031E-10    3.316740E-10
         1.792910E-10    8.827442E-11    4.006295E-11    1.693101E-11    6.719731E-12    2.522631E-12    9.011535E-13    3.078878E-13    1.010457E-13    3.200478E-14
         1.018475E-14
1
  CONCENTRATION IN LAYER   3 AT END OF TIME STEP  10 IN STRESS PERIOD    1
  ---------------------------------------------------------------------------

                1               2               3               4               5               6               7               8               9              10
               11              12              13              14              15              16              17              18              19              20
               21
 ................................................................................................................................................................
   1     1.456803E-09    2.420191E-09    4.025856E-09    5.789882E-09    6.944776E-09    6.913734E-09    6.086151E-09    4.595375E-09    3.010861E-09    1.742580E-09
         9.060433E-10    4.294550E-10    1.878689E-10    7.663446E-11    2.939910E-11    1.068252E-11    3.698516E-12    1.226222E-12    3.909790E-13    1.204373E-13
         3.725814E-14
   2     1.214523E-08    2.032083E-08    3.401254E-08    4.865203E-08    5.695158E-08    5.547926E-08    4.708133E-08    3.405153E-08    2.130420E-08    1.176355E-08
         5.838117E-09    2.644457E-09    1.107200E-09    4.329630E-10    1.594843E-10    5.573012E-11    1.858288E-11    5.941826E-12    1.829460E-12    5.447872E-13
         1.628821E-13
   3     1.012531E-07    1.708866E-07    2.882172E-07    4.099092E-07    4.674675E-07    4.449817E-07    3.636637E-07    2.517517E-07    1.504407E-07    7.934652E-08
         3.765789E-08    1.633911E-08    6.564677E-09    2.467865E-09    8.754409E-10    2.950833E-10    9.505359E-11    2.940222E-11    8.768927E-12    2.532246E-12
         7.341857E-13
   4     7.516979E-07    1.283104E-06    2.185753E-06    3.086794E-06    3.416310E-06    3.166421E-06    2.480485E-06    1.636468E-06    9.309031E-07    4.678260E-07
         2.119458E-07    8.797097E-08    3.388555E-08    1.223843E-08    4.179149E-09    1.358469E-09    4.227065E-10    1.264963E-10    3.654970E-11    1.023845E-11
         2.880146E-12
   5     4.799254E-06    8.315618E-06    1.435248E-05    2.007745E-05    2.147520E-05    1.928726E-05    1.439735E-05    9.008625E-06    4.861209E-06    2.322002E-06
         1.002414E-06    3.975226E-07    1.466746E-07    5.086570E-08    1.671476E-08    5.238923E-09    1.574704E-09    4.559582E-10    1.276688E-10    3.470556E-11
         9.478209E-12
   6     2.495962E-05    4.412178E-05    7.749814E-05    1.068955E-04    1.101001E-04    9.513645E-05    6.720446E-05    3.969500E-05    2.025796E-05    9.179738E-06
         3.772136E-06    1.428525E-06    5.048635E-07    1.681596E-07    5.320330E-08    1.609080E-08    4.676201E-09    1.311482E-09    3.562805E-10    9.411351E-11
         2.499321E-11
   7     9.578682E-05    1.739417E-04    3.129100E-04    4.220075E-04    4.181214E-04    3.436328E-04    2.282590E-04    1.268744E-04    6.116160E-05    2.629534E-05
         1.029611E-05    3.730081E-06    1.265510E-06    4.058929E-07    1.239957E-07    3.629694E-08    1.023165E-08    2.788825E-09    7.376319E-10    1.900292E-10
         4.926428E-11
   8     2.158037E-04    4.055091E-04    7.531755E-04    9.822653E-04    9.367921E-04    7.254322E-04    4.534536E-04    2.383210E-04    1.093114E-04    4.498538E-05
         1.694920E-05    5.934838E-06    1.953453E-06    6.097924E-07    1.818014E-07    5.206028E-08    1.438540E-08    3.850597E-09    1.001813E-09    2.542469E-10
         6.500012E-11
   9     9.578683E-05    1.739417E-04    3.129100E-04    4.220075E-04    4.181214E-04    3.436328E-04    2.282590E-04    1.268744E-04    6.116160E-05    2.629534E-05
         1.029611E-05    3.730080E-06    1.265510E-06    4.058932E-07    1.239958E-07    3.629696E-08    1.023161E-08    2.788795E-09    7.376170E-10    1.900250E-10
         4.926475E-11
  10     2.495962E-05    4.412178E-05    7.749815E-05    1.068955E-04    1.101001E-04    9.513645E-05    6.720446E-05    3.969500E-05    2.025796E-05    9.179738E-06
         3.772136E-06    1.428525E-06    5.048635E-07    1.681598E-07    5.320344E-08    1.609083E-08    4.676180E-09    1.311457E-09    3.562665E-10    9.410877E-11
         2.499292E-11
  11     4.799255E-06    8.315618E-06    1.435248E-05    2.007745E-05    2.147520E-05    1.928726E-05    1.439735E-05    9.008625E-06    4.861210E-06    2.322002E-06
         1.002414E-06    3.975224E-07    1.466745E-07    5.086577E-08    1.671483E-08    5.238943E-09    1.574699E-09    4.559479E-10    1.276619E-10    3.470274E-11
         9.477650E-12
  12     7.516979E-07    1.283104E-06    2.185754E-06    3.086794E-06    3.416310E-06    3.166421E-06    2.480485E-06    1.636468E-06    9.309031E-07    4.678260E-07
         2.119458E-07    8.797091E-08    3.388553E-08    1.223844E-08    4.179169E-09    1.358477E-09    4.227065E-10    1.264936E-10    3.654744E-11    1.023735E-11
         2.879809E-12
  13     1.012531E-07    1.708866E-07    2.882172E-07    4.099092E-07    4.674675E-07    4.449817E-07    3.636637E-07    2.517517E-07    1.504407E-07    7.934653E-08
         3.765789E-08    1.633910E-08    6.564670E-09    2.467867E-09    8.754453E-10    2.950859E-10    9.505402E-11    2.940173E-11    8.768379E-12    2.531930E-12
         7.340597E-13
  14     1.214523E-08    2.032083E-08    3.401254E-08    4.865203E-08    5.695158E-08    5.547926E-08    4.708133E-08    3.405153E-08    2.130420E-08    1.176355E-08
         5.838118E-09    2.644455E-09    1.107198E-09    4.329630E-10    1.594851E-10    5.573069E-11    1.858305E-11    5.941769E-12    1.829357E-12    5.447156E-13
         1.628472E-13
  15     1.456803E-09    2.420191E-09    4.025856E-09    5.789881E-09    6.944776E-09    6.913734E-09    6.086151E-09    4.595375E-09    3.010861E-09    1.742580E-09
         9.060435E-10    4.294547E-10    1.878686E-10    7.663441E-11    2.939921E-11    1.068263E-11    3.698564E-12    1.226222E-12    3.909623E-13    1.204227E-13
         3.724950E-14
1
  CONCENTRATION IN LAYER   4 AT END OF TIME STEP  10 IN STRESS PERIOD    1
  ---------------------------------------------------------------------------

                1               2               3               4               5               6               7               8               9              10
               11              12              13              14              15              16              17              18              19              20
               21
 ................................................................................................................................................................
   1     7.759440E-09    1.297164E-08    2.169533E-08    3.105126E-08    3.645156E-08    3.560175E-08    3.034805E-08    2.207039E-08    1.389393E-08    7.722731E-09
         3.859149E-09    1.760393E-09    7.423243E-10    2.923726E-10    1.084764E-10    3.818088E-11    1.282363E-11    4.130100E-12    1.280870E-12    3.842001E-13
         1.157390E-13
   2     6.862288E-08    1.157851E-07    1.952377E-07    2.777183E-07    3.169766E-07    3.019636E-07    2.471106E-07    1.713548E-07    1.025967E-07    5.422836E-08
         2.579611E-08    1.121978E-08    4.519351E-09    1.703473E-09    6.059434E-10    2.048229E-10    6.617078E-11    2.052936E-11    6.141455E-12    1.779074E-12
         5.175371E-13
   3     6.069021E-07    1.035772E-06    1.764184E-06    2.491775E-06    2.759238E-06    2.558682E-06    2.006083E-06    1.324877E-06    7.545574E-07    3.797006E-07
         1.722624E-07    7.160561E-08    2.762438E-08    9.993074E-09    3.418060E-09    1.112963E-09    3.469202E-10    1.040032E-10    3.010568E-11    8.449140E-12
         2.381507E-12
   4     4.803330E-06    8.322773E-06    1.436517E-05    2.009638E-05    2.149759E-05    1.930911E-05    1.441583E-05    9.021926E-06    4.869495E-06    2.326560E-06
         1.004667E-06    3.985394E-07    1.470985E-07    5.103070E-08    1.677524E-08    5.259941E-09    1.581672E-09    4.581725E-10    1.283461E-10    3.490587E-11
         9.537642E-12
   5     3.289229E-05    5.816950E-05    1.022116E-04    1.409526E-04    1.450801E-04    1.252611E-04    8.837550E-05    5.212460E-05    2.655933E-05    1.201503E-05
         4.928620E-06    1.863151E-06    6.572643E-07    2.185150E-07    6.900516E-08    2.083031E-08    6.041988E-09    1.691267E-09    4.585659E-10    1.208982E-10
         3.204227E-11
   6     1.848120E-04    3.361490E-04    6.055578E-04    8.155685E-04    8.064899E-04    6.604115E-04    4.366784E-04    2.414508E-04    1.157328E-04    4.945950E-05
         1.924642E-05    6.928500E-06    2.335528E-06    7.442093E-07    2.258537E-07    6.567604E-08    1.839007E-08    4.979099E-09    1.308157E-09    3.347641E-10
         8.619581E-11
   7     7.725004E-04    1.461380E-03    2.730370E-03    3.538969E-03    3.349066E-03    2.558524E-03    1.572958E-03    8.117203E-04    3.652515E-04    1.474032E-04
         5.445416E-05    1.869547E-05    6.034090E-06    1.847274E-06    5.402101E-07    1.517668E-07    4.115273E-08    1.081253E-08    2.762145E-09    6.885594E-10
         1.729115E-10
   8     1.902757E-03    3.797346E-03    7.489673E-03    9.169780E-03    8.197141E-03    5.786501E-03    3.298641E-03    1.593577E-03    6.776070E-04    2.604447E-04
         9.221876E-05    3.050336E-05    9.525720E-06    2.831681E-06    8.065308E-07    2.212655E-07    5.872204E-08    1.513100E-08    3.797616E-09    9.316527E-10
         2.305315E-10
   9     7.725004E-04    1.461380E-03    2.730370E-03    3.538969E-03    3.349066E-03    2.558524E-03    1.572958E-03    8.117203E-04    3.652515E-04    1.474032E-04
         5.445415E-05    1.869547E-05    6.034091E-06    1.847275E-06    5.402105E-07    1.517667E-07    4.115252E-08    1.081240E-08    2.762101E-09    6.885543E-10
         1.729193E-10
  10     1.848120E-04    3.361490E-04    6.055578E-04    8.155685E-04    8.064899E-04    6.604115E-04    4.366785E-04    2.414508E-04    1.157328E-04    4.945950E-05
         1.924642E-05    6.928498E-06    2.335529E-06    7.442103E-07    2.258541E-07    6.567601E-08    1.838992E-08    4.978993E-09    1.308111E-09    3.347545E-10
         8.620020E-11
  11     3.289229E-05    5.816951E-05    1.022116E-04    1.409526E-04    1.450801E-04    1.252611E-04    8.837550E-05    5.212460E-05    2.655933E-05    1.201502E-05
         4.928619E-06    1.863150E-06    6.572645E-07    2.185154E-07    6.900538E-08    2.083034E-08    6.041939E-09    1.691220E-09    4.585418E-10    1.208911E-10
         3.204282E-11
  12     4.803330E-06    8.322773E-06    1.436517E-05    2.009638E-05    2.149759E-05    1.930911E-05    1.441583E-05    9.021926E-06    4.869495E-06    2.326560E-06
         1.004667E-06    3.985392E-07    1.470985E-07    5.103080E-08    1.677531E-08    5.259961E-09    1.581662E-09    4.581588E-10    1.283376E-10    3.490267E-11
         9.537244E-12
  13     6.069021E-07    1.035772E-06    1.764184E-06    2.491775E-06    2.759237E-06    2.558682E-06    2.006084E-06    1.324877E-06    7.545575E-07    3.797006E-07
         1.722624E-07    7.160555E-08    2.762437E-08    9.993091E-09    3.418078E-09    1.112971E-09    3.469195E-10    1.040003E-10    3.010350E-11    8.448138E-12
         2.381247E-12
  14     6.862288E-08    1.157851E-07    1.952377E-07    2.777183E-07    3.169766E-07    3.019636E-07    2.471106E-07    1.713548E-07    1.025967E-07    5.422836E-08
         2.579611E-08    1.121977E-08    4.519347E-09    1.703475E-09    6.059469E-10    2.048247E-10    6.617099E-11    2.052892E-11    6.141016E-12    1.778833E-12
         5.174487E-13
  15     7.759440E-09    1.297164E-08    2.169533E-08    3.105125E-08    3.645156E-08    3.560175E-08    3.034805E-08    2.207039E-08    1.389393E-08    7.722732E-09
         3.859149E-09    1.760392E-09    7.423234E-10    2.923727E-10    1.084770E-10    3.818126E-11    1.282373E-11    4.130050E-12    1.280793E-12    3.841484E-13
         1.157146E-13
1
  CONCENTRATION IN LAYER   5 AT END OF TIME STEP  10 IN STRESS PERIOD    1
  ---------------------------------------------------------------------------

                1               2               3               4               5               6               7               8               9              10
               11              12              13              14              15              16              17              18              19              20
               21
 ................................................................................................................................................................
   1     3.330648E-08    5.612131E-08    9.451968E-08    1.345570E-07    1.541920E-07    1.474288E-07    1.213979E-07    8.482647E-08    5.122354E-08    2.732160E-08
         1.311996E-08    5.761865E-09    2.343819E-09    8.922780E-10    3.205887E-10    1.094641E-10    3.572373E-11    1.119642E-11    3.383763E-12    9.902958E-13
         2.911603E-13
   2     3.132884E-07    5.343192E-07    9.095540E-07    1.285159E-06    1.425633E-06    1.324251E-06    1.041231E-06    6.901160E-07    3.946343E-07    1.994596E-07
         9.091543E-08    3.797756E-08    1.472615E-08    5.355321E-09    1.841707E-09    6.030252E-10    1.890395E-10    5.700187E-11    1.659806E-11    4.686361E-12
         1.329309E-12
   3     2.950109E-06    5.108601E-06    8.812967E-06    1.233389E-05    1.321299E-05    1.188523E-05    8.894630E-06    5.582889E-06    3.023214E-06    1.449575E-06
         6.283210E-07    2.502291E-07    9.273522E-08    3.230668E-08    1.066602E-08    3.359166E-09    1.014670E-09    2.952788E-10    8.310258E-11    2.270863E-11
         6.235767E-12
   4     2.501826E-05    4.422446E-05    7.767922E-05    1.071627E-04    1.104047E-04    9.542934E-05    6.744473E-05    3.986145E-05    2.035746E-05    9.232221E-06
         3.797030E-06    1.439312E-06    5.091895E-07    1.697821E-07    5.377725E-08    1.628365E-08    4.738106E-09    1.330558E-09    3.619462E-10    9.574241E-11
         2.546316E-11
   5     1.850493E-04    3.365650E-04    6.062903E-04    8.166512E-04    8.076684E-04    6.615464E-04    4.375792E-04    2.420501E-04    1.160759E-04    4.963253E-05
         1.932494E-05    6.961097E-06    2.348074E-06    7.487329E-07    2.273950E-07    6.617570E-08    1.854506E-08    5.025322E-09    1.321462E-09    3.384760E-10
         8.723525E-11
   6     1.134524E-03    2.148730E-03    4.018756E-03    5.203114E-03    4.917249E-03    3.747540E-03    2.296998E-03    1.181315E-03    5.296193E-04    2.129268E-04
         7.835554E-05    2.679589E-05    8.614364E-06    2.626730E-06    7.650979E-07    2.140930E-07    5.782303E-08    1.513266E-08    3.850666E-09    9.562128E-10
         2.391938E-10
   7     5.240735E-03    1.053131E-02    2.090211E-02    2.541496E-02    2.254421E-02    1.570993E-02    8.817359E-03    4.188733E-03    1.750512E-03    6.611540E-04
         2.300396E-04    7.477613E-05    2.295121E-05    6.706905E-06    1.878279E-06    5.067777E-07    1.323078E-07    3.354789E-08    8.288531E-09    2.002516E-09
         4.880734E-10
   8     1.443043E-02    3.164167E-02    6.932446E-02    7.609168E-02    6.152705E-02    3.842458E-02    1.962040E-02    8.625404E-03    3.380293E-03    1.209168E-03
         4.014805E-04    1.252829E-04    3.709379E-05    1.049845E-05    2.857193E-06    7.513315E-07    1.916584E-07    4.758859E-08    1.153677E-08    2.740052E-09
         6.574935E-10
   9     5.240735E-03    1.053131E-02    2.090211E-02    2.541496E-02    2.254421E-02    1.570993E-02    8.817359E-03    4.188733E-03    1.750512E-03    6.611540E-04
         2.300395E-04    7.477613E-05    2.295122E-05    6.706908E-06    1.878279E-06    5.067769E-07    1.323072E-07    3.354758E-08    8.288455E-09    2.002530E-09
         4.881080E-10
  10     1.134524E-03    2.148730E-03    4.018756E-03    5.203114E-03    4.917249E-03    3.747540E-03    2.296998E-03    1.181315E-03    5.296193E-04    2.129268E-04
         7.835553E-05    2.679589E-05    8.614368E-06    2.626733E-06    7.650985E-07    2.140926E-07    5.782250E-08    1.513237E-08    3.850573E-09    9.562110E-10
         2.392194E-10
  11     1.850493E-04    3.365650E-04    6.062903E-04    8.166512E-04    8.076683E-04    6.615464E-04    4.375792E-04    2.420502E-04    1.160759E-04    4.963253E-05
         1.932494E-05    6.961096E-06    2.348075E-06    7.487342E-07    2.273955E-07    6.617561E-08    1.854485E-08    5.025180E-09    1.321405E-09    3.384669E-10
         8.724362E-11
  12     2.501826E-05    4.422446E-05    7.767922E-05    1.071627E-04    1.104047E-04    9.542934E-05    6.744474E-05    3.986145E-05    2.035746E-05    9.232220E-06
         3.797029E-06    1.439312E-06    5.091897E-07    1.697824E-07    5.377744E-08    1.628366E-08    4.738055E-09    1.330513E-09    3.619243E-10    9.573654E-11
         2.546434E-11
  13     2.950109E-06    5.108601E-06    8.812967E-06    1.233389E-05    1.321299E-05    1.188523E-05    8.894631E-06    5.582889E-06    3.023214E-06    1.449575E-06
         6.283208E-07    2.502290E-07    9.273523E-08    3.230676E-08    1.066607E-08    3.359178E-09    1.014661E-09    2.952686E-10    8.309650E-11    2.270645E-11
         6.235611E-12
  14     3.132885E-07    5.343192E-07    9.095540E-07    1.285159E-06    1.425632E-06    1.324251E-06    1.041231E-06    6.901160E-07    3.946343E-07    1.994596E-07
         9.091541E-08    3.797753E-08    1.472615E-08    5.355331E-09    1.841717E-09    6.030289E-10    1.890388E-10    5.700008E-11    1.659676E-11    4.685784E-12
         1.329175E-12
  15     3.330649E-08    5.612131E-08    9.451968E-08    1.345570E-07    1.541920E-07    1.474288E-07    1.213979E-07    8.482646E-08    5.122354E-08    2.732160E-08
         1.311996E-08    5.761860E-09    2.343817E-09    8.922792E-10    3.205905E-10    1.094651E-10    3.572381E-11    1.119616E-11    3.383517E-12    9.901632E-13
         2.911128E-13
1
  CONCENTRATION IN LAYER   6 AT END OF TIME STEP  10 IN STRESS PERIOD    1
  ---------------------------------------------------------------------------

                1               2               3               4               5               6               7               8               9              10
               11              12              13              14              15              16              17              18              19              20
               21
 ................................................................................................................................................................
   1     1.048893E-07    1.784568E-07    3.031353E-07    4.289036E-07    4.788951E-07    4.475461E-07    3.554758E-07    2.385323E-07    1.382777E-07    7.090886E-08
         3.280971E-08    1.391759E-08    5.481511E-09    2.025063E-09    7.075569E-10    2.353931E-10    7.498015E-11    2.297348E-11    6.797319E-12    1.950112E-12
         5.623776E-13
   2     1.050220E-06    1.815485E-06    3.127284E-06    4.381189E-06    4.712395E-06    4.256050E-06    3.206372E-06    2.028813E-06    1.108506E-06    5.366283E-07
         2.349553E-07    9.455190E-08    3.541847E-08    1.247470E-08    4.164617E-09    1.326505E-09    4.052899E-10    1.193127E-10    3.397196E-11    9.392549E-12
         2.610721E-12
   3     1.055587E-05    1.862560E-05    3.266520E-05    4.512244E-05    4.664845E-05    4.048789E-05    2.879601E-05    1.714598E-05    8.828384E-06    4.038748E-06
         1.676259E-06    6.414175E-07    2.291172E-07    7.715191E-08    2.468312E-08    7.550204E-09    2.219559E-09    6.297818E-10    1.731104E-10    4.627282E-11
         1.243999E-11
   4     9.635748E-05    1.749392E-04    3.146581E-04    4.245644E-04    4.208829E-04    3.462633E-04    2.303262E-04    1.282398E-04    6.193945E-05    2.668660E-05
         1.047339E-05    3.803618E-06    1.293803E-06    4.160952E-07    1.274727E-07    3.742457E-08    1.058161E-08    2.893256E-09    7.677123E-10    1.984271E-10
         5.161781E-11
   5     7.756622E-04    1.466918E-03    2.740051E-03    3.553017E-03    3.364066E-03    2.572416E-03    1.583486E-03    8.183729E-04    3.688626E-04    1.491331E-04
         5.520155E-05    1.899169E-05    6.143215E-06    1.885032E-06    5.525832E-07    1.556324E-07    4.231045E-08    1.114643E-08    2.855244E-09    7.137532E-10
         1.797578E-10
   6     5.252546E-03    1.055169E-02    2.093685E-02    2.546549E-02    2.259821E-02    1.575896E-02    8.853054E-03    4.210169E-03    1.761537E-03    6.661632E-04
         2.320969E-04    7.555334E-05    2.322487E-05    6.797634E-06    1.906832E-06    5.153627E-07    1.347870E-07    3.423852E-08    8.474825E-09    2.051364E-09
         5.009426E-10
   7     2.735006E-02    6.029330E-02    0.132718        0.144882        0.116428        7.197205E-02    3.631335E-02    1.576474E-02    6.100489E-03    2.154939E-03
         7.066752E-04    2.178418E-04    6.372993E-05    1.782661E-05    4.796237E-06    1.247194E-06    3.147056E-07    7.732092E-08    1.855477E-08    4.364028E-09
         1.037327E-09
   8     8.706947E-02    0.222897        0.595739        0.540070        0.362178        0.191869        8.612641E-02    3.415666E-02    1.228817E-02    4.084813E-03
         1.271910E-03    3.748648E-04    1.054317E-04    2.848127E-05    7.428555E-06    1.878703E-06    4.623476E-07    1.110653E-07    2.611724E-08    6.031749E-09
         1.410348E-09
   9     2.735006E-02    6.029330E-02    0.132718        0.144882        0.116428        7.197205E-02    3.631335E-02    1.576474E-02    6.100489E-03    2.154938E-03
         7.066752E-04    2.178418E-04    6.372994E-05    1.782661E-05    4.796236E-06    1.247193E-06    3.147046E-07    7.732052E-08    1.855472E-08    4.364080E-09
         1.037396E-09
  10     5.252546E-03    1.055169E-02    2.093685E-02    2.546549E-02    2.259821E-02    1.575896E-02    8.853054E-03    4.210169E-03    1.761537E-03    6.661631E-04
         2.320968E-04    7.555334E-05    2.322488E-05    6.797638E-06    1.906832E-06    5.153614E-07    1.347860E-07    3.423806E-08    8.474723E-09    2.051397E-09
         5.010049E-10
  11     7.756623E-04    1.466918E-03    2.740051E-03    3.553017E-03    3.364066E-03    2.572416E-03    1.583486E-03    8.183729E-04    3.688626E-04    1.491330E-04
         5.520154E-05    1.899169E-05    6.143218E-06    1.885035E-06    5.525836E-07    1.556319E-07    4.230997E-08    1.114617E-08    2.855164E-09    7.137549E-10
         1.797834E-10
  12     9.635749E-05    1.749392E-04    3.146581E-04    4.245644E-04    4.208828E-04    3.462633E-04    2.303262E-04    1.282398E-04    6.193945E-05    2.668660E-05
         1.047339E-05    3.803618E-06    1.293804E-06    4.160960E-07    1.274729E-07    3.742450E-08    1.058148E-08    2.893165E-09    7.676763E-10    1.984217E-10
         5.162372E-11
  13     1.055587E-05    1.862560E-05    3.266520E-05    4.512244E-05    4.664844E-05    4.048789E-05    2.879601E-05    1.714598E-05    8.828385E-06    4.038748E-06
         1.676259E-06    6.414172E-07    2.291173E-07    7.715209E-08    2.468321E-08    7.550208E-09    2.219532E-09    6.297593E-10    1.730993E-10    4.626988E-11
         1.244064E-11
  14     1.050220E-06    1.815485E-06    3.127284E-06    4.381189E-06    4.712394E-06    4.256050E-06    3.206373E-06    2.028813E-06    1.108506E-06    5.366283E-07
         2.349552E-07    9.455185E-08    3.541847E-08    1.247473E-08    4.164637E-09    1.326509E-09    4.052865E-10    1.193084E-10    3.396941E-11    9.391631E-12
         2.610654E-12
  15     1.048893E-07    1.784568E-07    3.031353E-07    4.289036E-07    4.788951E-07    4.475461E-07    3.554758E-07    2.385323E-07    1.382777E-07    7.090886E-08
         3.280971E-08    1.391758E-08    5.481509E-09    2.025067E-09    7.075608E-10    2.353945E-10    7.497991E-11    2.297280E-11    6.796806E-12    1.949879E-12
         5.623198E-13
1
  CONCENTRATION IN LAYER   7 AT END OF TIME STEP  10 IN STRESS PERIOD    1
  ---------------------------------------------------------------------------

                1               2               3               4               5               6               7               8               9              10
               11              12              13              14              15              16              17              18              19              20
               21
 ................................................................................................................................................................
   1     1.997810E-07    3.432997E-07    5.883080E-07    8.271382E-07    9.026822E-07    8.267140E-07    6.371126E-07    4.141528E-07    2.329889E-07    1.162673E-07
         5.250510E-08    2.179711E-08    8.422588E-09    3.059428E-09    1.053037E-09    3.456777E-10    1.088025E-10    3.298161E-11    9.665055E-12    2.748869E-12
         7.863200E-13
   2     2.109130E-06    3.699908E-06    6.456824E-06    8.954549E-06    9.364133E-06    8.233169E-06    5.972713E-06    3.638794E-06    1.920318E-06    9.012736E-07
         3.839626E-07    1.508397E-07    5.531776E-08    1.912209E-08    6.278894E-09    1.970713E-09    5.942655E-10    1.729036E-10    4.871556E-11    1.334200E-11
         3.676124E-12
   3     2.247916E-05    4.053548E-05    7.249403E-05    9.840782E-05    9.840739E-05    8.227301E-05    5.583074E-05    3.179589E-05    1.573303E-05    6.950225E-06
         2.797863E-06    1.042388E-06    3.637323E-07    1.199859E-07    3.769537E-08    1.134612E-08    3.287976E-09    9.210769E-10    2.503002E-10    6.622398E-11
         1.763688E-11
   4     2.201041E-04    4.130524E-04    7.663687E-04    1.001103E-03    9.566371E-04    7.434949E-04    4.669439E-04    2.467631E-04    1.138685E-04    4.716217E-05
         1.788854E-05    6.307050E-06    2.090634E-06    6.572991E-07    1.973868E-07    5.693615E-08    1.584796E-08    4.273129E-09    1.119833E-09    2.862454E-10
         7.371357E-11
   5     1.930767E-03    3.847020E-03    7.576988E-03    9.293153E-03    8.324697E-03    5.898159E-03    3.378037E-03    1.640636E-03    7.016455E-04    2.713276E-04
         9.668103E-05    3.218810E-05    1.011895E-05    3.028453E-06    8.685033E-07    2.399168E-07    6.411418E-08    1.663500E-08    4.203857E-09    1.038325E-09
         2.586796E-10
   6     1.457396E-02    3.189475E-02    6.975887E-02    7.671012E-02    6.216482E-02    3.896396E-02    1.998366E-02    8.828087E-03    3.477801E-03    1.250862E-03
         4.176839E-04    1.311012E-04    3.904840E-05    1.111877E-05    3.044595E-06    8.055560E-07    2.067610E-07    5.165445E-08    1.259863E-08    3.010101E-09
         7.265650E-10
   7     8.754627E-02    0.223693        0.596917        0.541883        0.364248        0.193548        8.718239E-02    3.470612E-02    1.253568E-02    4.184410E-03
         1.308508E-03    3.873434E-04    1.094273E-04    2.969384E-05    7.779848E-06    1.976425E-06    4.885735E-07    1.178826E-07    2.783966E-08    6.456315E-09
         1.515719E-09
   8     0.339212         1.14663         4.82723         2.81074         1.33542        0.569234        0.221214        7.907082E-02    2.625928E-02    8.184872E-03
         2.416263E-03    6.807972E-04    1.842450E-04    4.814463E-05    1.219948E-05    3.008339E-06    7.241357E-07    1.706014E-07    3.943806E-08    8.972339E-09
         2.071041E-09
   9     8.754627E-02    0.223693        0.596917        0.541883        0.364248        0.193548        8.718239E-02    3.470612E-02    1.253568E-02    4.184410E-03
         1.308508E-03    3.873434E-04    1.094273E-04    2.969384E-05    7.779849E-06    1.976424E-06    4.885729E-07    1.178822E-07    2.783953E-08    6.456295E-09
         1.515747E-09
  10     1.457396E-02    3.189475E-02    6.975887E-02    7.671012E-02    6.216482E-02    3.896396E-02    1.998366E-02    8.828087E-03    3.477801E-03    1.250862E-03
         4.176839E-04    1.311012E-04    3.904840E-05    1.111877E-05    3.044595E-06    8.055549E-07    2.067601E-07    5.165405E-08    1.259853E-08    3.010128E-09
         7.266233E-10
  11     1.930767E-03    3.847020E-03    7.576988E-03    9.293153E-03    8.324697E-03    5.898159E-03    3.378037E-03    1.640636E-03    7.016455E-04    2.713276E-04
         9.668103E-05    3.218810E-05    1.011896E-05    3.028455E-06    8.685035E-07    2.399162E-07    6.411365E-08    1.663473E-08    4.203783E-09    1.038334E-09
         2.587116E-10
  12     2.201041E-04    4.130524E-04    7.663686E-04    1.001103E-03    9.566371E-04    7.434949E-04    4.669439E-04    2.467631E-04    1.138685E-04    4.716217E-05
         1.788853E-05    6.307050E-06    2.090635E-06    6.573000E-07    1.973871E-07    5.693602E-08    1.584779E-08    4.273022E-09    1.119795E-09    2.862426E-10
         7.372272E-11
  13     2.247916E-05    4.053548E-05    7.249403E-05    9.840781E-05    9.840739E-05    8.227301E-05    5.583074E-05    3.179589E-05    1.573303E-05    6.950224E-06
         2.797863E-06    1.042387E-06    3.637325E-07    1.199861E-07    3.769546E-08    1.134611E-08    3.287937E-09    9.210479E-10    2.502873E-10    6.622129E-11
         1.763835E-11
  14     2.109130E-06    3.699908E-06    6.456823E-06    8.954548E-06    9.364132E-06    8.233169E-06    5.972713E-06    3.638794E-06    1.920318E-06    9.012736E-07
         3.839625E-07    1.508396E-07    5.531777E-08    1.912213E-08    6.278917E-09    1.970715E-09    5.942596E-10    1.728977E-10    4.871237E-11    1.334100E-11
         3.676183E-12
  15     1.997810E-07    3.432997E-07    5.883080E-07    8.271382E-07    9.026822E-07    8.267141E-07    6.371126E-07    4.141528E-07    2.329889E-07    1.162673E-07
         5.250509E-08    2.179709E-08    8.422588E-09    3.059435E-09    1.053042E-09    3.456792E-10    1.088019E-10    3.298058E-11    9.664371E-12    2.748591E-12
         7.862727E-13
1
  CONCENTRATION IN LAYER   8 AT END OF TIME STEP  10 IN STRESS PERIOD    1
  ---------------------------------------------------------------------------

                1               2               3               4               5               6               7               8               9              10
               11              12              13              14              15              16              17              18              19              20
               21
 ................................................................................................................................................................
   1     1.363786E-07    2.316257E-07    3.928875E-07    5.567435E-07    6.250037E-07    5.869013E-07    4.697150E-07    3.179019E-07    1.858937E-07    9.612712E-08
         4.482956E-08    1.915540E-08    7.595055E-09    2.823020E-09    9.918185E-10    3.316065E-10    1.060986E-10    3.263711E-11    9.690398E-12    2.788635E-12
         8.063831E-13
   2     1.347931E-06    2.324627E-06    3.996521E-06    5.610416E-06    6.071657E-06    5.515490E-06    4.192088E-06    2.678313E-06    1.477497E-06    7.218385E-07
         3.187657E-07    1.292987E-07    4.878716E-08    1.729739E-08    5.809469E-09    1.860507E-09    5.712331E-10    1.689024E-10    4.827905E-11    1.339398E-11
         3.734412E-12
   3     1.336999E-05    2.351549E-05    4.113096E-05    5.698555E-05    5.930190E-05    5.184704E-05    3.725648E-05    2.242479E-05    1.166869E-05    5.391523E-06
         2.258534E-06    8.716263E-07    3.137912E-07    1.064210E-07    3.426879E-08    1.054418E-08    3.116227E-09    8.884368E-10    2.452507E-10    6.580409E-11
         1.775123E-11
   4     1.202857E-04    2.174087E-04    3.895608E-04    5.281904E-04    5.267005E-04    4.378896E-04    2.947311E-04    1.660769E-04    8.114568E-05    3.534148E-05
         1.400925E-05    5.134593E-06    1.761251E-06    5.707872E-07    1.760890E-07    5.202715E-08    1.479530E-08    4.066414E-09    1.084032E-09    2.813465E-10
         7.346327E-11
   5     9.528413E-04    1.790447E-03    3.325027E-03    4.341402E-03    4.142676E-03    3.207837E-03    2.002060E-03    1.048807E-03    4.787710E-04    1.958511E-04
         7.327704E-05    2.545944E-05    8.309696E-06    2.570851E-06    7.593010E-07    2.153204E-07    5.890195E-08    1.560475E-08    4.017513E-09    1.008838E-09
         2.551171E-10
   6     6.337816E-03    1.261056E-02    2.479315E-02    3.046621E-02    2.732629E-02    1.935830E-02    1.105352E-02    5.337468E-03    2.264527E-03    8.672901E-04
         3.056742E-04    1.005569E-04    3.120962E-05    9.215385E-06    2.605922E-06    7.094975E-07    1.868052E-07    4.774054E-08    1.188159E-08    2.890078E-09
         7.088855E-10
   7     3.234780E-02    7.028310E-02    0.152410        0.168990        0.137963        8.703269E-02    4.476247E-02    1.976759E-02    7.766636E-03    2.781198E-03
         9.233928E-04    2.878710E-04    8.508785E-05    2.402592E-05    6.520058E-06    1.708842E-06    4.342965E-07    1.074001E-07    2.592459E-08    6.129508E-09
         1.463862E-09
   8     0.100774        0.252483        0.659372        0.610043        0.420689        0.228637        0.104907        4.239894E-02    1.550850E-02    5.232029E-03
         1.650941E-03    4.924812E-04    1.400422E-04    3.821239E-05    1.005839E-05    2.565149E-06    6.361024E-07    1.538617E-07    3.640601E-08    8.454583E-09
         1.986615E-09
   9     3.234780E-02    7.028310E-02    0.152410        0.168990        0.137963        8.703269E-02    4.476247E-02    1.976759E-02    7.766636E-03    2.781198E-03
         9.233928E-04    2.878710E-04    8.508785E-05    2.402592E-05    6.520057E-06    1.708842E-06    4.342964E-07    1.074001E-07    2.592463E-08    6.129542E-09
         1.463895E-09
  10     6.337816E-03    1.261056E-02    2.479315E-02    3.046621E-02    2.732629E-02    1.935830E-02    1.105352E-02    5.337468E-03    2.264527E-03    8.672901E-04
         3.056742E-04    1.005569E-04    3.120962E-05    9.215386E-06    2.605921E-06    7.094963E-07    1.868046E-07    4.774037E-08    1.188160E-08    2.890139E-09
         7.089466E-10
  11     9.528413E-04    1.790447E-03    3.325026E-03    4.341402E-03    4.142676E-03    3.207837E-03    2.002060E-03    1.048807E-03    4.787710E-04    1.958511E-04
         7.327704E-05    2.545944E-05    8.309699E-06    2.570852E-06    7.593008E-07    2.153197E-07    5.890151E-08    1.560457E-08    4.017481E-09    1.008861E-09
         2.551513E-10
  12     1.202857E-04    2.174087E-04    3.895608E-04    5.281904E-04    5.267005E-04    4.378896E-04    2.947311E-04    1.660769E-04    8.114568E-05    3.534148E-05
         1.400925E-05    5.134593E-06    1.761253E-06    5.707879E-07    1.760891E-07    5.202699E-08    1.479514E-08    4.066329E-09    1.084006E-09    2.813485E-10
         7.347357E-11
  13     1.336999E-05    2.351549E-05    4.113096E-05    5.698555E-05    5.930190E-05    5.184704E-05    3.725648E-05    2.242479E-05    1.166869E-05    5.391522E-06
         2.258533E-06    8.716262E-07    3.137914E-07    1.064211E-07    3.426885E-08    1.054416E-08    3.116190E-09    8.884116E-10    2.452404E-10    6.580260E-11
         1.775310E-11
  14     1.347931E-06    2.324627E-06    3.996521E-06    5.610416E-06    6.071657E-06    5.515490E-06    4.192088E-06    2.678314E-06    1.477497E-06    7.218384E-07
         3.187656E-07    1.292986E-07    4.878719E-08    1.729743E-08    5.809488E-09    1.860508E-09    5.712271E-10    1.688970E-10    4.827629E-11    1.339321E-11
         3.734574E-12
  15     1.363786E-07    2.316257E-07    3.928874E-07    5.567435E-07    6.250037E-07    5.869013E-07    4.697150E-07    3.179020E-07    1.858937E-07    9.612712E-08
         4.482955E-08    1.915539E-08    7.595057E-09    2.823026E-09    9.918227E-10    3.316075E-10    1.060979E-10    3.263612E-11    9.689773E-12    2.788396E-12
         8.063572E-13

 CONCENTRATION WILL BE SAVED ON UNIT 1026 AT END OF TIME STEP   10, STRESS PERIOD    1


  MASS BUDGET FOR ENTIRE MODEL AT END OF TIME STEP   10, STRESS PERIOD   1
  ---------------------------------------------------------------------------------------------------

     CUMULATIVE MASS      M       RATES FOR THIS TIME STEP      M/T          PACKAGE NAME    
     ------------------                 ------------------------                     ----------------

           IN:                                      IN:
           ---                                      ---
     STORAGE-AQUEOUS =       1.1483E-10       STORAGE-AQUEOUS =           0.0000     MST             
               WEL-1 =        5000.0000                 WEL-1 =          50.0000     SSM             
               CHD-1 =           0.0000                 CHD-1 =           0.0000     SSM             

            TOTAL IN =        5000.0000              TOTAL IN =          50.0000

          OUT:                                     OUT:
          ----                                     ----
     STORAGE-AQUEOUS =        5000.0000       STORAGE-AQUEOUS =          50.0000     MST             
               WEL-1 =           0.0000                 WEL-1 =           0.0000     SSM             
               CHD-1 =       1.1746E-06                 CHD-1 =       7.5955E-08     SSM             

           TOTAL OUT =        5000.0000             TOTAL OUT =          50.0000

            IN - OUT =      -1.3588E-09              IN - OUT =       1.7354E-10

 PERCENT DISCREPANCY =          -0.00     PERCENT DISCREPANCY =           0.00




         TIME SUMMARY AT END OF TIME STEP   10 IN STRESS PERIOD    1
                    SECONDS     MINUTES      HOURS       DAYS        YEARS
                    -----------------------------------------------------------
   TIME STEP LENGTH 8.64000E+05  14400.      240.00      10.000     2.73785E-02
 STRESS PERIOD TIME 8.64000E+06 1.44000E+05  2400.0      100.00     0.27379    
         TOTAL TIME 8.64000E+06 1.44000E+05  2400.0      100.00     0.27379    


end timestep

