                                   MODFLOW 6
                U.S. GEOLOGICAL SURVEY MODULAR HYDROLOGIC MODEL
                          GROUNDWATER FLOW MODEL (GWF)
                            VERSION 6.6.1 02/10/2025

   MODFLOW 6 compiled Feb 14 2025 13:40:10 with Intel(R) Fortran Intel(R) 64
   Compiler Classic for applications running on Intel(R) 64, Version 2021.7.0
                             Build 20220726_000000

This software has been approved for release by the U.S. Geological 
Survey (USGS). Although the software has been subjected to rigorous 
review, the USGS reserves the right to update the software as needed 
pursuant to further analysis and review. No warranty, expressed or 
implied, is made by the USGS or the U.S. Government as to the 
functionality of the software and related material nor shall the 
fact of release constitute any such warranty. Furthermore, the 
software is released on condition that neither the USGS nor the U.S. 
Government shall be held liable for any damages resulting from its 
authorized or unauthorized use. Also refer to the USGS Water 
Resources Software User Rights Notice for complete use, copyright, 
and distribution information.


As a work of the United States Government, this USGS product is 
in the public domain within the United States. You can copy, 
modify, distribute, and perform the work, even for commercial 
purposes, all without asking permission. Additionally, USGS 
waives copyright and related rights in the work worldwide 
through CC0 1.0 Universal Public Domain Dedication 
(https://creativecommons.org/publicdomain/zero/1.0/).

The following GNU Lesser General Public License (LGPL) libraries
are used in this USGS product:

    SPARSKIT version 2.0
      ilut, luson, and qsplit 
      (https://www-users.cse.umn.edu/~saad/software/SPARSKIT/)

    RCM - Reverse Cuthill McKee Ordering
      (https://people.math.sc.edu/Burkardt/f_src/rcm/rcm.html)

    BLAS - Basic Linear Algebra Subprograms Level 1
      (https://people.math.sc.edu/Burkardt/f_src/blas1_d/blas1_d.html)

    SPARSEKIT - Sparse Matrix Utility Package
      amux, dperm, dvperm, rperm, and cperm
      (https://people.sc.fsu.edu/~jburkardt/f77_src/sparsekit/sparsekit.html)

The following BSD-3 License libraries are used in this USGS product:

    Modern Fortran DAG Library
      Copyright (c) 2018, Jacob Williams
      All rights reserved.
      (https://github.com/jacobwilliams/daglib)

MODFLOW 6 compiler options: /O2 /heap-arrays:0 /fpe:0 /traceback /nologo /fpp
/c /module:win64\mod_mf6\ /object:win64\obj_mf6\

System command used to initiate simulation:
C:\Users\gross.DESKTOP-AIRQM2M\anaconda3\Scripts\mf6.exe

MODFLOW was compiled using uniform precision.

Real Variables
  KIND: 8
  TINY (smallest non-zero value):    2.225074-308
  HUGE (largest value):    1.797693+308
  PRECISION: 15
  SIZE IN BITS: 64

Integer Variables
  KIND: 4
  HUGE (largest value): 2147483647
  SIZE IN BITS: 32

Long Integer Variables
  KIND: 8
  HUGE (largest value): 9223372036854775807
  SIZE IN BITS: 64

Logical Variables
  KIND: 4
  SIZE IN BITS: 32
 
 NAMEFILE OPTIONS:
    FLOWS WILL BE SAVED TO BUDGET FILE SPECIFIED IN OUTPUT CONTROL
 END NAMEFILE OPTIONS:

 DIS -- STRUCTURED GRID DISCRETIZATION PACKAGE, VERSION 2 : 3/27/2014 - INPUT READ FROM MEMPATH: __INPUT__/EX-GWF-MAW-P02/DIS                      


 NPF -- NODE PROPERTY FLOW PACKAGE, VERSION 1, 3/30/2015 INPUT READ FROM MEMPATH: __INPUT__/EX-GWF-MAW-P02/NPF                      


 IC -- Initial Conditions Package, Version 8, 3/28/2015 input read from mempath: __INPUT__/EX-GWF-MAW-P02/IC                       


 Setting Discretization Options
    Model length unit [0=UND, 1=FEET, 2=METERS, 3=CENTIMETERS] set as 2
 End Setting Discretization Options

 Setting Discretization Dimensions
    NLAY = 2
    NROW = 101
    NCOL = 101
 End Setting Discretization Dimensions

 Setting Discretization Griddata
    DELR set from input file
    DELC set from input file
    TOP set from input file
    BOTM set from input file
    IDOMAIN set from input file
 End Setting Discretization Griddata


 The specified IDOMAIN results in a reduced number of cells.
 Number of user nodes: 20402
 Number of nodes in solution: 15978


 Setting NPF Options
    Specific discharge will be calculated at cell centers and written to DATA-SPDIS in budget file when requested.
 End Setting NPF Options

 Setting NPF Griddata
    ICELLTYPE set from input file
    K set from input file
    K33 set from input file
    K22 not provided.  Setting K22 = K.
 End Setting NPF Griddata


 MAW   -- MAW PACKAGE, VERSION 8, 2/22/2014 INPUT READ FROM UNIT 1009
 # File generated by Flopy version 3.9.1 on 06/21/2025 at 17:06:44.

 PROCESSING MAW OPTIONS
    FLOWING WELLS WILL BE SIMULATED.

 OPENED ex-gwf-maw-p02.maw.obs
 FILE TYPE:OBS   UNIT 1012   STATUS:OLD                 
 FORMAT:FORMATTED              ACCESS:SEQUENTIAL          
 ACTION:READ                

 END OF MAW OPTIONS

 PROCESSING MAW DIMENSIONS
    NMAWWELLS = 1
 END OF MAW DIMENSIONS

 PROCESSING MAW PACKAGEDATA
 END OF MAW PACKAGEDATA


    MAXBOUND =       2

 PROCESSING MAW CONNECTIONDATA
 END OF MAW CONNECTIONDATA
    STRT set from input file

 STO -- STORAGE PACKAGE, VERSION 1, 5/19/2014 INPUT READ FROM MEMPATH: __INPUT__/EX-GWF-MAW-P02/STO                      


 PROCESSING STORAGE OPTIONS
 END OF STORAGE OPTIONS
    BINARY GRID INFORMATION WILL BE WRITTEN TO:
      UNIT NUMBER: 1013
      FILE NAME: ex-gwf-maw-p02.dis.grb

 OPENED ex-gwf-maw-p02.dis.grb
 FILE TYPE:DATA(BINARY)   UNIT 1013   STATUS:REPLACE             
 FORMAT:UNFORMATTED            ACCESS:STREAM              
 ACTION:READWRITE           

      THE LAST TIME STEP WILL BE PRINTED
      THE LAST TIME STEP WILL BE PRINTED
 # File generated by Flopy version 3.9.1 on 06/21/2025 at 17:06:44.

 PROCESSING OC OPTIONS

    BUDGET INFORMATION WILL BE WRITTEN TO:
      UNIT NUMBER: 1014
      FILE NAME: ex-gwf-maw-p02.cbc

 OPENED ex-gwf-maw-p02.cbc
 FILE TYPE:DATA(BINARY)   UNIT 1014   STATUS:REPLACE             
 FORMAT:UNFORMATTED            ACCESS:STREAM              
 ACTION:READWRITE           

    HEAD INFORMATION WILL BE WRITTEN TO:
      UNIT NUMBER: 1015
      FILE NAME: ex-gwf-maw-p02.hds

 OPENED ex-gwf-maw-p02.hds
 FILE TYPE:DATA(BINARY)   UNIT 1015   STATUS:REPLACE             
 FORMAT:UNFORMATTED            ACCESS:STREAM              
 ACTION:READWRITE           

 END OF OC OPTIONS

The observation utility is active for "MAW_0"
 # File generated by Flopy version 3.9.1 on 06/21/2025 at 17:06:44.

Processing observation options:

Text output number of digits of precision set to: 10
The PRINT_INPUT option has been specified.


 OBSERVATIONS READ FROM FILE "ex-gwf-maw-p02.maw.obs"
 ----------------------------------------------------------------------------------------------------------------------------------------------------------------------------------------------------------------------------
 NAME                                     TYPE                                       TIME         LOCATION DATA                              OUTPUT FILENAME                                                                 
 ----------------------------------------------------------------------------------------------------------------------------------------------------------------------------------------------------------------------------
 HEAD                                     CONTINUOUS  HEAD                           ALL TIMES    "  1"                                      ex-gwf-maw-p02.maw.obs.csv                                                      
 Q1                                       CONTINUOUS  MAW                            ALL TIMES    "  1  1"                                   ex-gwf-maw-p02.maw.obs.csv                                                      
 Q2                                       CONTINUOUS  MAW                            ALL TIMES    "  1  2"                                   ex-gwf-maw-p02.maw.obs.csv                                                      
 FW                                       CONTINUOUS  FW-RATE                        ALL TIMES    "  1"                                      ex-gwf-maw-p02.maw.obs.csv                                                      
 ----------------------------------------------------------------------------------------------------------------------------------------------------------------------------------------------------------------------------



start timestep kper="1" kstp="1" mode="normal"


 BEGIN READING OUTPUT CONTROL FOR STRESS PERIOD 1
      THE LAST TIME STEP WILL BE SAVED
      THE LAST TIME STEP WILL BE SAVED
      THE LAST TIME STEP WILL BE PRINTED

 END READING OUTPUT CONTROL FOR STRESS PERIOD 1

end timestep


start timestep kper="1" kstp="2" mode="normal"


end timestep


start timestep kper="1" kstp="3" mode="normal"


end timestep


start timestep kper="1" kstp="4" mode="normal"


end timestep


start timestep kper="1" kstp="5" mode="normal"


end timestep


start timestep kper="1" kstp="6" mode="normal"


end timestep


start timestep kper="1" kstp="7" mode="normal"


end timestep


start timestep kper="1" kstp="8" mode="normal"


end timestep


start timestep kper="1" kstp="9" mode="normal"


end timestep


start timestep kper="1" kstp="10" mode="normal"


end timestep


start timestep kper="1" kstp="11" mode="normal"


end timestep


start timestep kper="1" kstp="12" mode="normal"


end timestep


start timestep kper="1" kstp="13" mode="normal"


end timestep


start timestep kper="1" kstp="14" mode="normal"


end timestep


start timestep kper="1" kstp="15" mode="normal"


end timestep


start timestep kper="1" kstp="16" mode="normal"


end timestep


start timestep kper="1" kstp="17" mode="normal"


end timestep


start timestep kper="1" kstp="18" mode="normal"


end timestep


start timestep kper="1" kstp="19" mode="normal"


end timestep


start timestep kper="1" kstp="20" mode="normal"


end timestep


start timestep kper="1" kstp="21" mode="normal"


end timestep


start timestep kper="1" kstp="22" mode="normal"


end timestep


start timestep kper="1" kstp="23" mode="normal"


end timestep


start timestep kper="1" kstp="24" mode="normal"


end timestep


start timestep kper="1" kstp="25" mode="normal"


end timestep


start timestep kper="1" kstp="26" mode="normal"


end timestep


start timestep kper="1" kstp="27" mode="normal"


end timestep


start timestep kper="1" kstp="28" mode="normal"


end timestep


start timestep kper="1" kstp="29" mode="normal"


end timestep


start timestep kper="1" kstp="30" mode="normal"


end timestep


start timestep kper="1" kstp="31" mode="normal"


end timestep


start timestep kper="1" kstp="32" mode="normal"


end timestep


start timestep kper="1" kstp="33" mode="normal"


end timestep


start timestep kper="1" kstp="34" mode="normal"


end timestep


start timestep kper="1" kstp="35" mode="normal"


end timestep


start timestep kper="1" kstp="36" mode="normal"


end timestep


start timestep kper="1" kstp="37" mode="normal"


end timestep


start timestep kper="1" kstp="38" mode="normal"


end timestep


start timestep kper="1" kstp="39" mode="normal"


end timestep


start timestep kper="1" kstp="40" mode="normal"


end timestep


start timestep kper="1" kstp="41" mode="normal"


end timestep


start timestep kper="1" kstp="42" mode="normal"


end timestep


start timestep kper="1" kstp="43" mode="normal"


end timestep


start timestep kper="1" kstp="44" mode="normal"


end timestep


start timestep kper="1" kstp="45" mode="normal"


end timestep


start timestep kper="1" kstp="46" mode="normal"


end timestep


start timestep kper="1" kstp="47" mode="normal"


end timestep


start timestep kper="1" kstp="48" mode="normal"


end timestep


start timestep kper="1" kstp="49" mode="normal"


end timestep


start timestep kper="1" kstp="50" mode="normal"

 UBDSV1 SAVING           STO-SS ON UNIT   1014 AT TIME STEP     50, STRESS PERIOD      1
 UBDSV1 SAVING     FLOW-JA-FACE ON UNIT   1014 AT TIME STEP     50, STRESS PERIOD      1
 UBDSV06 SAVING       DATA-SPDIS IN MODEL EX-GWF-MAW-P02   PACKAGE NPF             CONNECTED TO MODEL EX-GWF-MAW-P02   PACKAGE NPF              ON UNIT   1014 AT TIME STEP     50, STRESS PERIOD      1
 UBDSV06 SAVING              MAW IN MODEL EX-GWF-MAW-P02   PACKAGE EX-GWF-MAW-P02  CONNECTED TO MODEL EX-GWF-MAW-P02   PACKAGE MAW_0            ON UNIT   1014 AT TIME STEP     50, STRESS PERIOD      1

 HEAD WILL BE SAVED ON UNIT 1015 AT END OF TIME STEP   50, STRESS PERIOD    1


  MAW_0 BUDGET FOR ENTIRE MODEL AT END OF TIME STEP   50, STRESS PERIOD   1
  ------------------------------------------------------------------------------

     CUMULATIVE MAW_0      L**3       RATES FOR THIS TIME STEP      L**3/T
     ------------------                 ------------------------

           IN:                                      IN:
           ---                                      ---
                 GWF =        7516.9864                   GWF =        2991.1764
                RATE =           0.0000                  RATE =           0.0000
             FW-RATE =           0.0000               FW-RATE =           0.0000
             STORAGE =           0.0000               STORAGE =           0.0000
            CONSTANT =           0.0000              CONSTANT =           0.0000

            TOTAL IN =        7516.9864              TOTAL IN =        2991.1764

          OUT:                                     OUT:
          ----                                     ----
                 GWF =           0.0000                   GWF =           0.0000
                RATE =           0.0000                  RATE =           0.0000
             FW-RATE =        7516.9864               FW-RATE =        2991.1764
             STORAGE =           0.0000               STORAGE =           0.0000
            CONSTANT =           0.0000              CONSTANT =           0.0000

           TOTAL OUT =        7516.9864             TOTAL OUT =        2991.1764

            IN - OUT =      -2.5632E-07              IN - OUT =      -2.3029E-07

 PERCENT DISCREPANCY =          -0.00     PERCENT DISCREPANCY =          -0.00



  VOLUME BUDGET FOR ENTIRE MODEL AT END OF TIME STEP   50, STRESS PERIOD   1
  ---------------------------------------------------------------------------------------------------

     CUMULATIVE VOLUME      L**3       RATES FOR THIS TIME STEP      L**3/T          PACKAGE NAME    
     ------------------                 ------------------------                     ----------------

           IN:                                      IN:
           ---                                      ---
              STO-SS =        7516.9864                STO-SS =        2991.1764     STORAGE                          
                 MAW =           0.0000                   MAW =           0.0000     MAW_0                            

            TOTAL IN =        7516.9864              TOTAL IN =        2991.1764

          OUT:                                     OUT:
          ----                                     ----
              STO-SS =       2.0779E-07                STO-SS =       1.5143E-09     STORAGE                          
                 MAW =        7516.9864                   MAW =        2991.1764     MAW_0                            

           TOTAL OUT =        7516.9864             TOTAL OUT =        2991.1764

            IN - OUT =      -1.8854E-07              IN - OUT =      -1.0258E-07

 PERCENT DISCREPANCY =          -0.00     PERCENT DISCREPANCY =          -0.00




         TIME SUMMARY AT END OF TIME STEP   50 IN STRESS PERIOD    1
                    SECONDS     MINUTES      HOURS       DAYS        YEARS
                    -----------------------------------------------------------
   TIME STEP LENGTH  33337.      555.62      9.2603     0.38584     1.05639E-03
 STRESS PERIOD TIME 2.00000E+05  3333.3      55.556      2.3148     6.33762E-03
         TOTAL TIME 2.00000E+05  3333.3      55.556      2.3148     6.33762E-03


end timestep

