                                   MODFLOW 6
                U.S. GEOLOGICAL SURVEY MODULAR HYDROLOGIC MODEL
                          GROUNDWATER FLOW MODEL (GWF)
                   VERSION 6.3.0 release candidate 07/30/2021
                               ***DEVELOP MODE***

   MODFLOW 6 compiled Oct 27 2021 07:53:31 with IFORT compiler (ver. 20.21.1)

This software is preliminary or provisional and is subject to 
revision. It is being provided to meet the need for timely best 
science. The software has not received final approval by the U.S. 
Geological Survey (USGS). No warranty, expressed or implied, is made 
by the USGS or the U.S. Government as to the functionality of the 
software and related material nor shall the fact of release 
constitute any such warranty. The software is provided on the 
condition that neither the USGS nor the U.S. Government shall be held 
liable for any damages resulting from the authorized or unauthorized 
use of the software.


System command used to initiate simulation:
E:\15_REPOS\00_BETAMI\bin\mf6.exe

MODFLOW was compiled using uniform precision.

Real Variables
  KIND: 8
  TINY (smallest non-zero value):    2.225074-308
  HUGE (largest value):    1.797693+308
  PRECISION: 15
  BIT SIZE: 64

Integer Variables
  KIND: 4
  HUGE (largest value): 2147483647
  BIT SIZE: 32

Long Integer Variables
  KIND: 8
  HUGE (largest value): 9223372036854775807
  BIT SIZE: 64

Logical Variables
  KIND: 4
  BIT SIZE: 32
 

 OPENED test001e_UZF_3lay.dis
 FILE TYPE:DIS6                   UNIT 1005   STATUS:OLD                 
 FORMAT:FORMATTED              ACCESS:SEQUENTIAL          
 ACTION:READ                


 OPENED test001e_UZF_3lay.ic
 FILE TYPE:IC6                    UNIT 1006   STATUS:OLD                 
 FORMAT:FORMATTED              ACCESS:SEQUENTIAL          
 ACTION:READ                


 OPENED test001e_UZF_3lay.npf
 FILE TYPE:NPF6                   UNIT 1007   STATUS:OLD                 
 FORMAT:FORMATTED              ACCESS:SEQUENTIAL          
 ACTION:READ                


 OPENED test001e_UZF_3lay.sto
 FILE TYPE:STO6                   UNIT 1008   STATUS:OLD                 
 FORMAT:FORMATTED              ACCESS:SEQUENTIAL          
 ACTION:READ                


 OPENED test001e_UZF_3lay.chd
 FILE TYPE:CHD6                   UNIT 1009   STATUS:OLD                 
 FORMAT:FORMATTED              ACCESS:SEQUENTIAL          
 ACTION:READ                


 OPENED test001e_UZF_3lay.oc
 FILE TYPE:OC6                    UNIT 1010   STATUS:OLD                 
 FORMAT:FORMATTED              ACCESS:SEQUENTIAL          
 ACTION:READ                


 OPENED test001e_UZF_3lay.uzf
 FILE TYPE:UZF6                   UNIT 1011   STATUS:OLD                 
 FORMAT:FORMATTED              ACCESS:SEQUENTIAL          
 ACTION:READ                


 OPENED test001e_UZF_3lay_obs.hed
 FILE TYPE:OBS6                   UNIT 1012   STATUS:OLD                 
 FORMAT:FORMATTED              ACCESS:SEQUENTIAL          
 ACTION:READ                

 NAMEFILE OPTIONS:
    STRESS PACKAGE INPUT WILL BE PRINTED FOR ALL MODEL STRESS PACKAGES
    NEWTON-RAPHSON method enabled for the model.

 DIS -- STRUCTURED GRID DISCRETIZATION PACKAGE, VERSION 2 : 3/27/2014 - INPUT READ FROM UNIT 1005


 # File generated by Flopy version 3.8.2 on 02/21/2025 at 07:37:26.
 PROCESSING DISCRETIZATION OPTIONS
    MODEL LENGTH UNIT IS METERS
 END OF DISCRETIZATION OPTIONS
 PROCESSING DISCRETIZATION DIMENSIONS
    NLAY =       3
    NROW =       1
    NCOL =      10
 END OF DISCRETIZATION DIMENSIONS
 PROCESSING GRIDDATA

                     DELR =   100.0000    

                     DELC =   1000.000    

 TOP ELEVATION OF LAYER 1 =   0.000000    

   MODEL LAYER BOTTOM EL. =  -5.000000     FOR LAYER 1

   MODEL LAYER BOTTOM EL. =  -20.00000     FOR LAYER 2

   MODEL LAYER BOTTOM EL. =  -30.00000     FOR LAYER 3
 END PROCESSING GRIDDATA

 NPF -- NODE PROPERTY FLOW PACKAGE, VERSION 1, 3/30/2015 INPUT READ FROM UNIT 1007


 # File generated by Flopy version 3.8.2 on 02/21/2025 at 07:37:26.
 PROCESSING NPF OPTIONS
    CELL-BY-CELL FLOW INFORMATION WILL BE SAVED TO BINARY FILE WHENEVER ICBCFL IS NOT ZERO.
 END OF NPF OPTIONS

 CHD   -- CHD PACKAGE, VERSION 8, 2/22/2014 INPUT READ FROM UNIT 1009
 # File generated by Flopy version 3.8.2 on 02/21/2025 at 07:37:26.

 PROCESSING CHD OPTIONS
    CHD FLOWS WILL BE PRINTED TO LISTING FILE.
 END OF CHD OPTIONS

 PROCESSING CHD DIMENSIONS
    MAXBOUND =       2
 END OF CHD DIMENSIONS

 UZF   -- UZF CELLS PACKAGE, VERSION 8, 2/22/2014 INPUT READ FROM UNIT 1011
 # File generated by Flopy version 3.8.2 on 02/21/2025 at 07:37:26.

 PROCESSING UZF CELLS OPTIONS
    UZF CELLS BOUNDARIES HAVE NAMES IN LAST COLUMN.
    UZF CELLS FLOWS WILL BE PRINTED TO LISTING FILE.

 OPENED test001e_UZF_3lay.uzf.cbc
 FILE TYPE:DATA(BINARY)   UNIT 1014   STATUS:REPLACE             
 FORMAT:UNFORMATTED            ACCESS:STREAM              
 ACTION:READWRITE           

    UZF  BUDGET  WILL BE SAVED TO FILE: test001e_UZF_3lay.uzf.cbc                                                                                                                                                                                                                                                                                                                                                                                                                                                                                                                                                                                                                                                                                                                                                                                                                                                                                                                                                                                                                                                                                                                                                                                                                                                                                                                                                                                                                                                                                                                                                                                                                                                                                                                                                                                                                                                                                                                                                                                                                                                                                                                                                                                                                                                                                                                                                                                                                                                                                                                                                                                                                                                                                                                                                                                                                                                                                                                                                                                                                                                                                                                                                                                                                                                                                                                                                                                                                                                                                                                                                                                                                                                                                                                                                                                                                                                                                                                                                                                                                                                                                                                                                                                                                                                                                                                                                                                                                                                                                                                                                                                                                                                                                                                                                                                                                                                                                                                                                                                                                                                                                                                                                                               
    OPENED ON UNIT: 1014

 OPENED test001e_UZF_3lay.uzf.cbc.csv
 FILE TYPE:CSV   UNIT 1015   STATUS:REPLACE             
 FORMAT:FORMATTED              ACCESS:SEQUENTIAL          
 ACTION:READWRITE           

    UZF  BUDGET CSV  WILL BE SAVED TO FILE: test001e_UZF_3lay.uzf.cbc.csv                                                                                                                                                                                                                                                                                                                                                                                                                                                                                                                                                                                                                                                                                                                                                                                                                                                                                                                                                                                                                                                                                                                                                                                                                                                                                                                                                                                                                                                                                                                                                                                                                                                                                                                                                                                                                                                                                                                                                                                                                                                                                                                                                                                                                                                                                                                                                                                                                                                                                                                                                                                                                                                                                                                                                                                                                                                                                                                                                                                                                                                                                                                                                                                                                                                                                                                                                                                                                                                                                                                                                                                                                                                                                                                                                                                                                                                                                                                                                                                                                                                                                                                                                                                                                                                                                                                                                                                                                                                                                                                                                                                                                                                                                                                                                                                                                                                                                                                                                                                                                                                                                                                                                                           
    OPENED ON UNIT: 1015

 OPENED test001e_uzf_3lay.uzf_convergence.csv
 FILE TYPE:CSV   UNIT 1016   STATUS:REPLACE             
 FORMAT:FORMATTED              ACCESS:SEQUENTIAL          
 ACTION:READWRITE           

    UZF  PACKAGE_CONVERGENCE  WILL BE SAVED TO FILE: test001e_uzf_3lay.uzf_convergence.csv                                                                                                                                                                                                                                                                                                                                                                                                                                                                                                                                                                                                                                                                                                                                                                                                                                                                                                                                                                                                                                                                                                                                                                                                                                                                                                                                                                                                                                                                                                                                                                                                                                                                                                                                                                                                                                                                                                                                                                                                                                                                                                                                                                                                                                                                                                                                                                                                                                                                                                                                                                                                                                                                                                                                                                                                                                                                                                                                                                                                                                                                                                                                                                                                                                                                                                                                                                                                                                                                                                                                                                                                                                                                                                                                                                                                                                                                                                                                                                                                                                                                                                                                                                                                                                                                                                                                                                                                                                                                                                                                                                                                                                                                                                                                                                                                                                                                                                                                                                                                                                                                                                                                                                   
    OPENED ON UNIT: 1016

 OPENED test001e_UZF_3lay.obs
 FILE TYPE:OBS   UNIT 1017   STATUS:OLD                 
 FORMAT:FORMATTED              ACCESS:SEQUENTIAL          
 ACTION:READ                

    ET WILL BE SIMULATED WITHIN UZ AND GW ZONES, WITH LINEAR GWET IF OPTION NOT SPECIFIED OTHERWISE.
    GROUNDWATER ET FUNCTION WILL BE LINEAR.
    GROUNDWATER DISCHARGE TO LAND SURFACE WILL BE SIMULATED.
 END OF UZF CELLS OPTIONS

 PROCESSING UZF CELLS DIMENSIONS
    NUZFCELLS = 24
    NTRAILWAVES = 10
    NTRAILSETS = 40
 END OF UZF CELLS DIMENSIONS

 PROCESSING UZF CELLS PACKAGEDATA

 UZF CELLS PACKAGE (UZF-1) STATIC UZF CELL DATA
 --------------------------------------------------------------------------------------------------------------------------------------------------------------------------------
   NUMBER   CELLID                 LANDFLAG     IVERTCON     SURFDEP        VKS          THTR         THTS         THTI         EPS      BOUNDNAME                               
 --------------------------------------------------------------------------------------------------------------------------------------------------------------------------------
     1      (1,1,2)                   1            9        1.0000       1.0000       5.00000E-02  0.35000      5.00000E-02  4.0000      UZF01                                   
     2      (1,1,3)                   1            10       1.0000       1.0000       5.00000E-02  0.35000      5.00000E-02  4.0000      UZF02                                   
     3      (1,1,4)                   1            11       1.0000       1.0000       5.00000E-02  0.35000      5.00000E-02  4.0000      UZF03                                   
     4      (1,1,5)                   1            12       1.0000       1.0000       5.00000E-02  0.35000      5.00000E-02  4.0000      UZF04                                   
     5      (1,1,6)                   1            13       1.0000       1.0000       5.00000E-02  0.35000      5.00000E-02  4.0000      UZF05                                   
     6      (1,1,7)                   1            14       1.0000       1.0000       5.00000E-02  0.35000      5.00000E-02  4.0000      UZF06                                   
     7      (1,1,8)                   1            15       1.0000       1.0000       5.00000E-02  0.35000      5.00000E-02  4.0000      UZF07                                   
     8      (1,1,9)                   1            16       1.0000       1.0000       5.00000E-02  0.35000      5.00000E-02  4.0000      UZF08                                   
     9      (2,1,2)                   0            17       1.0000       1.0000       5.00000E-02  0.35000      5.00000E-02  4.0000      UZF08                                   
     10     (2,1,3)                   0            18       1.0000       1.0000       5.00000E-02  0.35000      5.00000E-02  4.0000      UZF10                                   
     11     (2,1,4)                   0            19       1.0000       1.0000       5.00000E-02  0.35000      5.00000E-02  4.0000      UZF11                                   
     12     (2,1,5)                   0            20       1.0000       1.0000       5.00000E-02  0.35000      5.00000E-02  4.0000      UZF12                                   
     13     (2,1,6)                   0            21       1.0000       1.0000       5.00000E-02  0.35000      5.00000E-02  4.0000      UZF13                                   
     14     (2,1,7)                   0            22       1.0000       1.0000       5.00000E-02  0.35000      5.00000E-02  4.0000      UZF14                                   
     15     (2,1,8)                   0            23       1.0000       1.0000       5.00000E-02  0.35000      5.00000E-02  4.0000      UZF15                                   
     16     (2,1,9)                   0            24       1.0000       1.0000       5.00000E-02  0.35000      5.00000E-02  4.0000      UZF16                                   
     17     (3,1,2)                   0            0        1.0000       1.0000       5.00000E-02  0.35000      5.00000E-02  4.0000      UZF17                                   
     18     (3,1,3)                   0            0        1.0000       1.0000       5.00000E-02  0.35000      5.00000E-02  4.0000      UZF18                                   
     19     (3,1,4)                   0            0        1.0000       1.0000       5.00000E-02  0.35000      5.00000E-02  4.0000      UZF19                                   
     20     (3,1,5)                   0            0        1.0000       1.0000       5.00000E-02  0.35000      5.00000E-02  4.0000      UZF20                                   
     21     (3,1,6)                   0            0        1.0000       1.0000       5.00000E-02  0.35000      5.00000E-02  4.0000      UZF21                                   
     22     (3,1,7)                   0            0        1.0000       1.0000       5.00000E-02  0.35000      5.00000E-02  4.0000      UZF22                                   
     23     (3,1,8)                   0            0        1.0000       1.0000       5.00000E-02  0.35000      5.00000E-02  4.0000      UZF23                                   
     24     (3,1,9)                   0            0        1.0000       1.0000       5.00000E-02  0.35000      5.00000E-02  4.0000      UZF24                                   
 --------------------------------------------------------------------------------------------------------------------------------------------------------------------------------



 IC -- INITIAL CONDITIONS PACKAGE, VERSION 8, 3/28/2015 INPUT READ FROM UNIT 1006
 # File generated by Flopy version 3.8.2 on 02/21/2025 at 07:37:26.
 PROCESSING IC OPTIONS
 END OF IC OPTIONS
 PROCESSING GRIDDATA

     INITIAL HEAD =  -25.00000     FOR LAYER 1

     INITIAL HEAD =  -25.00000     FOR LAYER 2

     INITIAL HEAD =  -25.00000     FOR LAYER 3
 END PROCESSING GRIDDATA
 PROCESSING GRIDDATA

                ICELLTYPE = 1 FOR LAYER 1

                ICELLTYPE = 1 FOR LAYER 2

                ICELLTYPE = 1 FOR LAYER 3

                        K =   10.00000     FOR LAYER 1

                        K =   10.00000     FOR LAYER 2

                        K =   10.00000     FOR LAYER 3

                      K33 =   10.00000     FOR LAYER 1

                      K33 =   10.00000     FOR LAYER 2

                      K33 =   10.00000     FOR LAYER 3
 K22 not provided.  Assuming K22 = K.
 END PROCESSING GRIDDATA

 STO -- STORAGE PACKAGE, VERSION 1, 5/19/2014 INPUT READ FROM UNIT 1008


 # File generated by Flopy version 3.8.2 on 02/21/2025 at 07:37:26.
 PROCESSING STORAGE OPTIONS
 END OF STORAGE OPTIONS
 PROCESSING GRIDDATA

                 ICONVERT = 1 FOR LAYER 1

                 ICONVERT = 1 FOR LAYER 2

                 ICONVERT = 1 FOR LAYER 3

         SPECIFIC STORAGE =  0.1000000E-04 FOR LAYER 1

         SPECIFIC STORAGE =  0.1000000E-04 FOR LAYER 2

         SPECIFIC STORAGE =  0.1000000E-04 FOR LAYER 3

           SPECIFIC YIELD =  0.2000000     FOR LAYER 1

           SPECIFIC YIELD =  0.2000000     FOR LAYER 2

           SPECIFIC YIELD =  0.2000000     FOR LAYER 3
 END PROCESSING GRIDDATA

The observation utility is active for "GWF_1"
 # File generated by Flopy version 3.8.2 on 02/21/2025 at 07:37:26.

Processing observation options:


    BINARY GRID INFORMATION WILL BE WRITTEN TO:
      UNIT NUMBER: 1019
      FILE NAME: E:\15_REPOS\00_BETAMI\01_floPy\002_mf6\A1\test001e_UZF_3lay.dis.grb

 OPENED E:\15_REPOS\00_BETAMI\01_floPy\002_mf6\A1\test001e_UZF_3lay.dis.grb
 FILE TYPE:DATA(BINARY)   UNIT 1019   STATUS:REPLACE             
 FORMAT:UNFORMATTED            ACCESS:STREAM              
 ACTION:READWRITE           

      THE LAST TIME STEP WILL BE PRINTED
      THE LAST TIME STEP WILL BE PRINTED
 # File generated by Flopy version 3.8.2 on 02/21/2025 at 07:37:26.

 PROCESSING OC OPTIONS

    BUDGET INFORMATION WILL BE WRITTEN TO:
      UNIT NUMBER: 1020
      FILE NAME: test001e_UZF_3lay.cbc

 OPENED test001e_UZF_3lay.cbc
 FILE TYPE:DATA(BINARY)   UNIT 1020   STATUS:REPLACE             
 FORMAT:UNFORMATTED            ACCESS:STREAM              
 ACTION:READWRITE           


 OPENED test001e_UZF_3lay.cbc.csv
 FILE TYPE:CSV   UNIT 1021   STATUS:REPLACE             
 FORMAT:FORMATTED              ACCESS:SEQUENTIAL          
 ACTION:READWRITE           

    HEAD INFORMATION WILL BE WRITTEN TO:
      UNIT NUMBER: 1022
      FILE NAME: test001e_UZF_3lay.hds

 OPENED test001e_UZF_3lay.hds
 FILE TYPE:DATA(BINARY)   UNIT 1022   STATUS:REPLACE             
 FORMAT:UNFORMATTED            ACCESS:STREAM              
 ACTION:READWRITE           

 END OF OC OPTIONS

The observation utility is active for "UZF-1"
 # File generated by Flopy version 3.8.2 on 02/21/2025 at 07:37:26.

Processing observation options:



start timestep kper="1" kstp="1" mode="normal"


 BEGIN READING OUTPUT CONTROL FOR STRESS PERIOD 1
      ALL TIME STEPS WILL BE SAVED
      ALL TIME STEPS WILL BE SAVED
      ALL TIME STEPS WILL BE PRINTED
      ALL TIME STEPS WILL BE PRINTED

 END READING OUTPUT CONTROL FOR STRESS PERIOD 1


 PROCESSING STORAGE PERIOD DATA
 END PROCESSING STORAGE PERIOD DATA


 STRESS PERIOD 1 IS TRANSIENT

 ---------------------------------------------------
  CHD NO.    LAYER    ROW     COL         HEAD      
 ---------------------------------------------------
     1         3       1       1    -25.0000000     
     2         3       1      10    -25.0000000     
 ---------------------------------------------------



 UZF CELLS PACKAGE (UZF-1) DATA FOR PERIOD      1
 ----------------------------------------------------------------------------------------------------------------------------
   NUMBER   CELLID                   FINF         PET         EXTDEP       EXTWC     BOUNDNAME                               
 ----------------------------------------------------------------------------------------------------------------------------
     1      (1,1,2)               1.00000E-02  1.00000E-06  15.000       7.00000E-02 UZF01                                   
     2      (1,1,3)               1.00000E-02  1.00000E-06  15.000       7.00000E-02 UZF02                                   
     3      (1,1,4)               1.00000E-02  1.00000E-06  15.000       7.00000E-02 UZF03                                   
     4      (1,1,5)               1.00000E-02  1.00000E-06  15.000       7.00000E-02 UZF04                                   
     5      (1,1,6)               1.00000E-02  1.00000E-06  15.000       7.00000E-02 UZF05                                   
     6      (1,1,7)               1.00000E-02  1.00000E-06  15.000       7.00000E-02 UZF06                                   
     7      (1,1,8)               1.00000E-02  1.00000E-06  15.000       7.00000E-02 UZF07                                   
     8      (1,1,9)               1.00000E-02  1.00000E-06  15.000       7.00000E-02 UZF08                                   
     9      (2,1,2)               0.0000       1.00000E-06  15.000       7.00000E-02 UZF08                                   
     10     (2,1,3)               0.0000       1.00000E-06  15.000       7.00000E-02 UZF10                                   
     11     (2,1,4)               0.0000       1.00000E-06  15.000       7.00000E-02 UZF11                                   
     12     (2,1,5)               0.0000       1.00000E-06  15.000       7.00000E-02 UZF12                                   
     13     (2,1,6)               0.0000       1.00000E-06  15.000       7.00000E-02 UZF13                                   
     14     (2,1,7)               0.0000       1.00000E-06  15.000       7.00000E-02 UZF14                                   
     15     (2,1,8)               0.0000       1.00000E-06  15.000       7.00000E-02 UZF15                                   
     16     (2,1,9)               0.0000       1.00000E-06  15.000       7.00000E-02 UZF16                                   
 ----------------------------------------------------------------------------------------------------------------------------


 UBDSV1 SAVING     FLOW-JA-FACE ON UNIT   1020 AT TIME STEP      1, STRESS PERIOD      1
 UBDSV06 SAVING     FLOW-JA-FACE IN MODEL GWF_1            PACKAGE UZF-1           CONNECTED TO MODEL GWF_1            PACKAGE UZF-1            ON UNIT   1014 AT TIME STEP      1, STRESS PERIOD      1
 UBDSV06 SAVING              GWF IN MODEL GWF_1            PACKAGE UZF-1           CONNECTED TO MODEL GWF_1            PACKAGE GWF_1            ON UNIT   1014 AT TIME STEP      1, STRESS PERIOD      1
 UBDSV06 SAVING     INFILTRATION IN MODEL GWF_1            PACKAGE UZF-1           CONNECTED TO MODEL GWF_1            PACKAGE UZF-1            ON UNIT   1014 AT TIME STEP      1, STRESS PERIOD      1
 UBDSV06 SAVING          REJ-INF IN MODEL GWF_1            PACKAGE UZF-1           CONNECTED TO MODEL GWF_1            PACKAGE UZF-1            ON UNIT   1014 AT TIME STEP      1, STRESS PERIOD      1
 UBDSV06 SAVING             UZET IN MODEL GWF_1            PACKAGE UZF-1           CONNECTED TO MODEL GWF_1            PACKAGE UZF-1            ON UNIT   1014 AT TIME STEP      1, STRESS PERIOD      1
 UBDSV06 SAVING          STORAGE IN MODEL GWF_1            PACKAGE UZF-1           CONNECTED TO MODEL GWF_1            PACKAGE UZF-1            ON UNIT   1014 AT TIME STEP      1, STRESS PERIOD      1

 CHD PACKAGE (CHD-1) FLOW RATES   PERIOD      1   STEP        1
 -----------------------------------------------
   NUMBER   CELLID                    RATE      
 -----------------------------------------------
     1      (3,1,1)               0.0000000     
     2      (3,1,10)              0.0000000     
 -----------------------------------------------




 UZF-GWRCH PACKAGE (UZF-1) FLOW RATES   PERIOD      1   STEP        1
 ----------------------------------------------------------------------------------------
   NUMBER   CELLID                    RATE       NAME                                    
 ----------------------------------------------------------------------------------------
     1      (1,1,2)               0.0000000      UZF01                                   
     2      (1,1,3)               0.0000000      UZF02                                   
     3      (1,1,4)               0.0000000      UZF03                                   
     4      (1,1,5)               0.0000000      UZF04                                   
     5      (1,1,6)               0.0000000      UZF05                                   
     6      (1,1,7)               0.0000000      UZF06                                   
     7      (1,1,8)               0.0000000      UZF07                                   
     8      (1,1,9)               0.0000000      UZF08                                   
     9      (2,1,2)               0.0000000      UZF08                                   
     10     (2,1,3)               0.0000000      UZF10                                   
     11     (2,1,4)               0.0000000      UZF11                                   
     12     (2,1,5)               0.0000000      UZF12                                   
     13     (2,1,6)               0.0000000      UZF13                                   
     14     (2,1,7)               0.0000000      UZF14                                   
     15     (2,1,8)               0.0000000      UZF15                                   
     16     (2,1,9)               0.0000000      UZF16                                   
     17     (3,1,2)               0.0000000      UZF17                                   
     18     (3,1,3)               0.0000000      UZF18                                   
     19     (3,1,4)               0.0000000      UZF19                                   
     20     (3,1,5)               0.0000000      UZF20                                   
     21     (3,1,6)               0.0000000      UZF21                                   
     22     (3,1,7)               0.0000000      UZF22                                   
     23     (3,1,8)               0.0000000      UZF23                                   
     24     (3,1,9)               0.0000000      UZF24                                   
 ----------------------------------------------------------------------------------------




 UZF-GWD PACKAGE (UZF-1) FLOW RATES   PERIOD      1   STEP        1
 ----------------------------------------------------------------------------------------
   NUMBER   CELLID                    RATE       NAME                                    
 ----------------------------------------------------------------------------------------
     1      (1,1,2)               0.0000000      UZF01                                   
     2      (1,1,3)               0.0000000      UZF02                                   
     3      (1,1,4)               0.0000000      UZF03                                   
     4      (1,1,5)               0.0000000      UZF04                                   
     5      (1,1,6)               0.0000000      UZF05                                   
     6      (1,1,7)               0.0000000      UZF06                                   
     7      (1,1,8)               0.0000000      UZF07                                   
     8      (1,1,9)               0.0000000      UZF08                                   
     9      (2,1,2)               0.0000000      UZF08                                   
     10     (2,1,3)               0.0000000      UZF10                                   
     11     (2,1,4)               0.0000000      UZF11                                   
     12     (2,1,5)               0.0000000      UZF12                                   
     13     (2,1,6)               0.0000000      UZF13                                   
     14     (2,1,7)               0.0000000      UZF14                                   
     15     (2,1,8)               0.0000000      UZF15                                   
     16     (2,1,9)               0.0000000      UZF16                                   
     17     (3,1,2)               0.0000000      UZF17                                   
     18     (3,1,3)               0.0000000      UZF18                                   
     19     (3,1,4)               0.0000000      UZF19                                   
     20     (3,1,5)               0.0000000      UZF20                                   
     21     (3,1,6)               0.0000000      UZF21                                   
     22     (3,1,7)               0.0000000      UZF22                                   
     23     (3,1,8)               0.0000000      UZF23                                   
     24     (3,1,9)               0.0000000      UZF24                                   
 ----------------------------------------------------------------------------------------




 UZF-GWET PACKAGE (UZF-1) FLOW RATES   PERIOD      1   STEP        1
 ----------------------------------------------------------------------------------------
   NUMBER   CELLID                    RATE       NAME                                    
 ----------------------------------------------------------------------------------------
     1      (1,1,2)               0.0000000      UZF01                                   
     2      (1,1,3)               0.0000000      UZF02                                   
     3      (1,1,4)               0.0000000      UZF03                                   
     4      (1,1,5)               0.0000000      UZF04                                   
     5      (1,1,6)               0.0000000      UZF05                                   
     6      (1,1,7)               0.0000000      UZF06                                   
     7      (1,1,8)               0.0000000      UZF07                                   
     8      (1,1,9)               0.0000000      UZF08                                   
     9      (2,1,2)               0.0000000      UZF08                                   
     10     (2,1,3)               0.0000000      UZF10                                   
     11     (2,1,4)               0.0000000      UZF11                                   
     12     (2,1,5)               0.0000000      UZF12                                   
     13     (2,1,6)               0.0000000      UZF13                                   
     14     (2,1,7)               0.0000000      UZF14                                   
     15     (2,1,8)               0.0000000      UZF15                                   
     16     (2,1,9)               0.0000000      UZF16                                   
     17     (3,1,2)               0.0000000      UZF17                                   
     18     (3,1,3)               0.0000000      UZF18                                   
     19     (3,1,4)               0.0000000      UZF19                                   
     20     (3,1,5)               0.0000000      UZF20                                   
     21     (3,1,6)               0.0000000      UZF21                                   
     22     (3,1,7)               0.0000000      UZF22                                   
     23     (3,1,8)               0.0000000      UZF23                                   
     24     (3,1,9)               0.0000000      UZF24                                   
 ----------------------------------------------------------------------------------------




 UZF-1 PACKAGE - SUMMARY OF FLOWS FOR EACH CONTROL VOLUME   PERIOD      1   STEP        1
 ----------------------------------------------------------------------------------------------------------------------------------------------------
                                                                                                                                           PERCENT   
   NUMBER   CELLID                  INFLOW      OUTFLOW        GWF      INFILTRATION   REJ INF        UZET       STORAGE      IN - OUT    DIFFERENCE 
 ----------------------------------------------------------------------------------------------------------------------------------------------------
     1      (1,1,2)               0.0000       0.0000       0.0000       1000.0       0.0000      -1.40546E-03 -1000.00      3.41061E-13  3.41061E-14
     2      (1,1,3)               0.0000       0.0000       0.0000       1000.0       0.0000      -1.40546E-03 -1000.00      3.41061E-13  3.41061E-14
     3      (1,1,4)               0.0000       0.0000       0.0000       1000.0       0.0000      -1.40546E-03 -1000.00      3.41061E-13  3.41061E-14
     4      (1,1,5)               0.0000       0.0000       0.0000       1000.0       0.0000      -1.40546E-03 -1000.00      3.41061E-13  3.41061E-14
     5      (1,1,6)               0.0000       0.0000       0.0000       1000.0       0.0000      -1.40546E-03 -1000.00      3.41061E-13  3.41061E-14
     6      (1,1,7)               0.0000       0.0000       0.0000       1000.0       0.0000      -1.40546E-03 -1000.00      3.41061E-13  3.41061E-14
     7      (1,1,8)               0.0000       0.0000       0.0000       1000.0       0.0000      -1.40546E-03 -1000.00      3.41061E-13  3.41061E-14
     8      (1,1,9)               0.0000       0.0000       0.0000       1000.0       0.0000      -1.40546E-03 -1000.00      3.41061E-13  3.41061E-14
     9      (2,1,2)               0.0000       0.0000       0.0000       0.0000       0.0000       0.0000       0.0000       0.0000       0.0000     
     10     (2,1,3)               0.0000       0.0000       0.0000       0.0000       0.0000       0.0000       0.0000       0.0000       0.0000     
     11     (2,1,4)               0.0000       0.0000       0.0000       0.0000       0.0000       0.0000       0.0000       0.0000       0.0000     
     12     (2,1,5)               0.0000       0.0000       0.0000       0.0000       0.0000       0.0000       0.0000       0.0000       0.0000     
     13     (2,1,6)               0.0000       0.0000       0.0000       0.0000       0.0000       0.0000       0.0000       0.0000       0.0000     
     14     (2,1,7)               0.0000       0.0000       0.0000       0.0000       0.0000       0.0000       0.0000       0.0000       0.0000     
     15     (2,1,8)               0.0000       0.0000       0.0000       0.0000       0.0000       0.0000       0.0000       0.0000       0.0000     
     16     (2,1,9)               0.0000       0.0000       0.0000       0.0000       0.0000       0.0000       0.0000       0.0000       0.0000     
     17     (3,1,2)               0.0000       0.0000       0.0000       0.0000       0.0000       0.0000       0.0000       0.0000       0.0000     
     18     (3,1,3)               0.0000       0.0000       0.0000       0.0000       0.0000       0.0000       0.0000       0.0000       0.0000     
     19     (3,1,4)               0.0000       0.0000       0.0000       0.0000       0.0000       0.0000       0.0000       0.0000       0.0000     
     20     (3,1,5)               0.0000       0.0000       0.0000       0.0000       0.0000       0.0000       0.0000       0.0000       0.0000     
     21     (3,1,6)               0.0000       0.0000       0.0000       0.0000       0.0000       0.0000       0.0000       0.0000       0.0000     
     22     (3,1,7)               0.0000       0.0000       0.0000       0.0000       0.0000       0.0000       0.0000       0.0000       0.0000     
     23     (3,1,8)               0.0000       0.0000       0.0000       0.0000       0.0000       0.0000       0.0000       0.0000       0.0000     
     24     (3,1,9)               0.0000       0.0000       0.0000       0.0000       0.0000       0.0000       0.0000       0.0000       0.0000     
 ----------------------------------------------------------------------------------------------------------------------------------------------------


1
  HEAD IN LAYER   1 AT END OF TIME STEP   1 IN STRESS PERIOD    1
  ---------------------------------------------------------------------------

            1           2           3           4           5           6           7           8           9          10
 ........................................................................................................................
   1   -25.00      -25.00      -25.00      -25.00      -25.00      -25.00      -25.00      -25.00      -25.00      -25.00    
1
  HEAD IN LAYER   2 AT END OF TIME STEP   1 IN STRESS PERIOD    1
  ---------------------------------------------------------------------------

            1           2           3           4           5           6           7           8           9          10
 ........................................................................................................................
   1   -25.00      -25.00      -25.00      -25.00      -25.00      -25.00      -25.00      -25.00      -25.00      -25.00    
1
  HEAD IN LAYER   3 AT END OF TIME STEP   1 IN STRESS PERIOD    1
  ---------------------------------------------------------------------------

            1           2           3           4           5           6           7           8           9          10
 ........................................................................................................................
   1   -25.00      -25.00      -25.00      -25.00      -25.00      -25.00      -25.00      -25.00      -25.00      -25.00    

 HEAD WILL BE SAVED ON UNIT 1022 AT END OF TIME STEP    1, STRESS PERIOD    1


  UZF-1 BUDGET FOR ENTIRE MODEL AT END OF TIME STEP    1, STRESS PERIOD   1
  ------------------------------------------------------------------------------

     CUMULATIVE UZF-1      L**3       RATES FOR THIS TIME STEP      L**3/T
     ------------------                 ------------------------

           IN:                                      IN:
           ---                                      ---
                 GWF =           0.0000                   GWF =           0.0000
        INFILTRATION =       16000.0000          INFILTRATION =        8000.0000
             REJ-INF =           0.0000               REJ-INF =           0.0000
                UZET =           0.0000                  UZET =           0.0000
             STORAGE =           0.0000               STORAGE =           0.0000

            TOTAL IN =       16000.0000              TOTAL IN =        8000.0000

          OUT:                                     OUT:
          ----                                     ----
                 GWF =           0.0000                   GWF =           0.0000
        INFILTRATION =           0.0000          INFILTRATION =           0.0000
             REJ-INF =           0.0000               REJ-INF =           0.0000
                UZET =       2.2487E-02                  UZET =       1.1244E-02
             STORAGE =       15999.9775               STORAGE =        7999.9888

           TOTAL OUT =       16000.0000             TOTAL OUT =        8000.0000

            IN - OUT =       5.4570E-12              IN - OUT =       2.7285E-12

 PERCENT DISCREPANCY =           0.00     PERCENT DISCREPANCY =           0.00



  VOLUME BUDGET FOR ENTIRE MODEL AT END OF TIME STEP    1, STRESS PERIOD   1
  ---------------------------------------------------------------------------------------------------

     CUMULATIVE VOLUME      L**3       RATES FOR THIS TIME STEP      L**3/T          PACKAGE NAME    
     ------------------                 ------------------------                     ----------------

           IN:                                      IN:
           ---                                      ---
              STO-SS =           0.0000                STO-SS =           0.0000     STORAGE         
              STO-SY =           0.0000                STO-SY =           0.0000     STORAGE         
                 CHD =           0.0000                   CHD =           0.0000     CHD-1           
           UZF-GWRCH =           0.0000             UZF-GWRCH =           0.0000     UZF-1           
             UZF-GWD =           0.0000               UZF-GWD =           0.0000     UZF-1           
            UZF-GWET =           0.0000              UZF-GWET =           0.0000     UZF-1           

            TOTAL IN =           0.0000              TOTAL IN =           0.0000

          OUT:                                     OUT:
          ----                                     ----
              STO-SS =           0.0000                STO-SS =           0.0000     STORAGE         
              STO-SY =           0.0000                STO-SY =           0.0000     STORAGE         
                 CHD =           0.0000                   CHD =           0.0000     CHD-1           
           UZF-GWRCH =           0.0000             UZF-GWRCH =           0.0000     UZF-1           
             UZF-GWD =           0.0000               UZF-GWD =           0.0000     UZF-1           
            UZF-GWET =           0.0000              UZF-GWET =           0.0000     UZF-1           

           TOTAL OUT =           0.0000             TOTAL OUT =           0.0000

            IN - OUT =           0.0000              IN - OUT =           0.0000

 PERCENT DISCREPANCY =           0.00     PERCENT DISCREPANCY =           0.00




         TIME SUMMARY AT END OF TIME STEP    1 IN STRESS PERIOD    1
                    SECONDS     MINUTES      HOURS       DAYS        YEARS
                    -----------------------------------------------------------
   TIME STEP LENGTH 1.72800E+05  2880.0      48.000      2.0000     5.47570E-03
 STRESS PERIOD TIME 1.72800E+05  2880.0      48.000      2.0000     5.47570E-03
         TOTAL TIME 1.72800E+05  2880.0      48.000      2.0000     5.47570E-03


end timestep


start timestep kper="1" kstp="2" mode="normal"

 UBDSV1 SAVING     FLOW-JA-FACE ON UNIT   1020 AT TIME STEP      2, STRESS PERIOD      1
 UBDSV06 SAVING     FLOW-JA-FACE IN MODEL GWF_1            PACKAGE UZF-1           CONNECTED TO MODEL GWF_1            PACKAGE UZF-1            ON UNIT   1014 AT TIME STEP      2, STRESS PERIOD      1
 UBDSV06 SAVING              GWF IN MODEL GWF_1            PACKAGE UZF-1           CONNECTED TO MODEL GWF_1            PACKAGE GWF_1            ON UNIT   1014 AT TIME STEP      2, STRESS PERIOD      1
 UBDSV06 SAVING     INFILTRATION IN MODEL GWF_1            PACKAGE UZF-1           CONNECTED TO MODEL GWF_1            PACKAGE UZF-1            ON UNIT   1014 AT TIME STEP      2, STRESS PERIOD      1
 UBDSV06 SAVING          REJ-INF IN MODEL GWF_1            PACKAGE UZF-1           CONNECTED TO MODEL GWF_1            PACKAGE UZF-1            ON UNIT   1014 AT TIME STEP      2, STRESS PERIOD      1
 UBDSV06 SAVING             UZET IN MODEL GWF_1            PACKAGE UZF-1           CONNECTED TO MODEL GWF_1            PACKAGE UZF-1            ON UNIT   1014 AT TIME STEP      2, STRESS PERIOD      1
 UBDSV06 SAVING          STORAGE IN MODEL GWF_1            PACKAGE UZF-1           CONNECTED TO MODEL GWF_1            PACKAGE UZF-1            ON UNIT   1014 AT TIME STEP      2, STRESS PERIOD      1

 CHD PACKAGE (CHD-1) FLOW RATES   PERIOD      1   STEP        2
 -----------------------------------------------
   NUMBER   CELLID                    RATE      
 -----------------------------------------------
     1      (3,1,1)               0.0000000     
     2      (3,1,10)              0.0000000     
 -----------------------------------------------




 UZF-GWRCH PACKAGE (UZF-1) FLOW RATES   PERIOD      1   STEP        2
 ----------------------------------------------------------------------------------------
   NUMBER   CELLID                    RATE       NAME                                    
 ----------------------------------------------------------------------------------------
     1      (1,1,2)               0.0000000      UZF01                                   
     2      (1,1,3)               0.0000000      UZF02                                   
     3      (1,1,4)               0.0000000      UZF03                                   
     4      (1,1,5)               0.0000000      UZF04                                   
     5      (1,1,6)               0.0000000      UZF05                                   
     6      (1,1,7)               0.0000000      UZF06                                   
     7      (1,1,8)               0.0000000      UZF07                                   
     8      (1,1,9)               0.0000000      UZF08                                   
     9      (2,1,2)               0.0000000      UZF08                                   
     10     (2,1,3)               0.0000000      UZF10                                   
     11     (2,1,4)               0.0000000      UZF11                                   
     12     (2,1,5)               0.0000000      UZF12                                   
     13     (2,1,6)               0.0000000      UZF13                                   
     14     (2,1,7)               0.0000000      UZF14                                   
     15     (2,1,8)               0.0000000      UZF15                                   
     16     (2,1,9)               0.0000000      UZF16                                   
     17     (3,1,2)               0.0000000      UZF17                                   
     18     (3,1,3)               0.0000000      UZF18                                   
     19     (3,1,4)               0.0000000      UZF19                                   
     20     (3,1,5)               0.0000000      UZF20                                   
     21     (3,1,6)               0.0000000      UZF21                                   
     22     (3,1,7)               0.0000000      UZF22                                   
     23     (3,1,8)               0.0000000      UZF23                                   
     24     (3,1,9)               0.0000000      UZF24                                   
 ----------------------------------------------------------------------------------------




 UZF-GWD PACKAGE (UZF-1) FLOW RATES   PERIOD      1   STEP        2
 ----------------------------------------------------------------------------------------
   NUMBER   CELLID                    RATE       NAME                                    
 ----------------------------------------------------------------------------------------
     1      (1,1,2)               0.0000000      UZF01                                   
     2      (1,1,3)               0.0000000      UZF02                                   
     3      (1,1,4)               0.0000000      UZF03                                   
     4      (1,1,5)               0.0000000      UZF04                                   
     5      (1,1,6)               0.0000000      UZF05                                   
     6      (1,1,7)               0.0000000      UZF06                                   
     7      (1,1,8)               0.0000000      UZF07                                   
     8      (1,1,9)               0.0000000      UZF08                                   
     9      (2,1,2)               0.0000000      UZF08                                   
     10     (2,1,3)               0.0000000      UZF10                                   
     11     (2,1,4)               0.0000000      UZF11                                   
     12     (2,1,5)               0.0000000      UZF12                                   
     13     (2,1,6)               0.0000000      UZF13                                   
     14     (2,1,7)               0.0000000      UZF14                                   
     15     (2,1,8)               0.0000000      UZF15                                   
     16     (2,1,9)               0.0000000      UZF16                                   
     17     (3,1,2)               0.0000000      UZF17                                   
     18     (3,1,3)               0.0000000      UZF18                                   
     19     (3,1,4)               0.0000000      UZF19                                   
     20     (3,1,5)               0.0000000      UZF20                                   
     21     (3,1,6)               0.0000000      UZF21                                   
     22     (3,1,7)               0.0000000      UZF22                                   
     23     (3,1,8)               0.0000000      UZF23                                   
     24     (3,1,9)               0.0000000      UZF24                                   
 ----------------------------------------------------------------------------------------




 UZF-GWET PACKAGE (UZF-1) FLOW RATES   PERIOD      1   STEP        2
 ----------------------------------------------------------------------------------------
   NUMBER   CELLID                    RATE       NAME                                    
 ----------------------------------------------------------------------------------------
     1      (1,1,2)               0.0000000      UZF01                                   
     2      (1,1,3)               0.0000000      UZF02                                   
     3      (1,1,4)               0.0000000      UZF03                                   
     4      (1,1,5)               0.0000000      UZF04                                   
     5      (1,1,6)               0.0000000      UZF05                                   
     6      (1,1,7)               0.0000000      UZF06                                   
     7      (1,1,8)               0.0000000      UZF07                                   
     8      (1,1,9)               0.0000000      UZF08                                   
     9      (2,1,2)               0.0000000      UZF08                                   
     10     (2,1,3)               0.0000000      UZF10                                   
     11     (2,1,4)               0.0000000      UZF11                                   
     12     (2,1,5)               0.0000000      UZF12                                   
     13     (2,1,6)               0.0000000      UZF13                                   
     14     (2,1,7)               0.0000000      UZF14                                   
     15     (2,1,8)               0.0000000      UZF15                                   
     16     (2,1,9)               0.0000000      UZF16                                   
     17     (3,1,2)               0.0000000      UZF17                                   
     18     (3,1,3)               0.0000000      UZF18                                   
     19     (3,1,4)               0.0000000      UZF19                                   
     20     (3,1,5)               0.0000000      UZF20                                   
     21     (3,1,6)               0.0000000      UZF21                                   
     22     (3,1,7)               0.0000000      UZF22                                   
     23     (3,1,8)               0.0000000      UZF23                                   
     24     (3,1,9)               0.0000000      UZF24                                   
 ----------------------------------------------------------------------------------------




 UZF-1 PACKAGE - SUMMARY OF FLOWS FOR EACH CONTROL VOLUME   PERIOD      1   STEP        2
 ----------------------------------------------------------------------------------------------------------------------------------------------------
                                                                                                                                           PERCENT   
   NUMBER   CELLID                  INFLOW      OUTFLOW        GWF      INFILTRATION   REJ INF        UZET       STORAGE      IN - OUT    DIFFERENCE 
 ----------------------------------------------------------------------------------------------------------------------------------------------------
     1      (1,1,2)               0.0000       0.0000       0.0000       1000.0       0.0000      -2.81091E-03 -1000.00     -2.27374E-13 -2.27374E-14
     2      (1,1,3)               0.0000       0.0000       0.0000       1000.0       0.0000      -2.81091E-03 -1000.00     -2.27374E-13 -2.27374E-14
     3      (1,1,4)               0.0000       0.0000       0.0000       1000.0       0.0000      -2.81091E-03 -1000.00     -2.27374E-13 -2.27374E-14
     4      (1,1,5)               0.0000       0.0000       0.0000       1000.0       0.0000      -2.81091E-03 -1000.00     -2.27374E-13 -2.27374E-14
     5      (1,1,6)               0.0000       0.0000       0.0000       1000.0       0.0000      -2.81091E-03 -1000.00     -2.27374E-13 -2.27374E-14
     6      (1,1,7)               0.0000       0.0000       0.0000       1000.0       0.0000      -2.81091E-03 -1000.00     -2.27374E-13 -2.27374E-14
     7      (1,1,8)               0.0000       0.0000       0.0000       1000.0       0.0000      -2.81091E-03 -1000.00     -2.27374E-13 -2.27374E-14
     8      (1,1,9)               0.0000       0.0000       0.0000       1000.0       0.0000      -2.81091E-03 -1000.00     -2.27374E-13 -2.27374E-14
     9      (2,1,2)               0.0000       0.0000       0.0000       0.0000       0.0000       0.0000       0.0000       0.0000       0.0000     
     10     (2,1,3)               0.0000       0.0000       0.0000       0.0000       0.0000       0.0000       0.0000       0.0000       0.0000     
     11     (2,1,4)               0.0000       0.0000       0.0000       0.0000       0.0000       0.0000       0.0000       0.0000       0.0000     
     12     (2,1,5)               0.0000       0.0000       0.0000       0.0000       0.0000       0.0000       0.0000       0.0000       0.0000     
     13     (2,1,6)               0.0000       0.0000       0.0000       0.0000       0.0000       0.0000       0.0000       0.0000       0.0000     
     14     (2,1,7)               0.0000       0.0000       0.0000       0.0000       0.0000       0.0000       0.0000       0.0000       0.0000     
     15     (2,1,8)               0.0000       0.0000       0.0000       0.0000       0.0000       0.0000       0.0000       0.0000       0.0000     
     16     (2,1,9)               0.0000       0.0000       0.0000       0.0000       0.0000       0.0000       0.0000       0.0000       0.0000     
     17     (3,1,2)               0.0000       0.0000       0.0000       0.0000       0.0000       0.0000       0.0000       0.0000       0.0000     
     18     (3,1,3)               0.0000       0.0000       0.0000       0.0000       0.0000       0.0000       0.0000       0.0000       0.0000     
     19     (3,1,4)               0.0000       0.0000       0.0000       0.0000       0.0000       0.0000       0.0000       0.0000       0.0000     
     20     (3,1,5)               0.0000       0.0000       0.0000       0.0000       0.0000       0.0000       0.0000       0.0000       0.0000     
     21     (3,1,6)               0.0000       0.0000       0.0000       0.0000       0.0000       0.0000       0.0000       0.0000       0.0000     
     22     (3,1,7)               0.0000       0.0000       0.0000       0.0000       0.0000       0.0000       0.0000       0.0000       0.0000     
     23     (3,1,8)               0.0000       0.0000       0.0000       0.0000       0.0000       0.0000       0.0000       0.0000       0.0000     
     24     (3,1,9)               0.0000       0.0000       0.0000       0.0000       0.0000       0.0000       0.0000       0.0000       0.0000     
 ----------------------------------------------------------------------------------------------------------------------------------------------------


1
  HEAD IN LAYER   1 AT END OF TIME STEP   2 IN STRESS PERIOD    1
  ---------------------------------------------------------------------------

            1           2           3           4           5           6           7           8           9          10
 ........................................................................................................................
   1   -25.00      -25.00      -25.00      -25.00      -25.00      -25.00      -25.00      -25.00      -25.00      -25.00    
1
  HEAD IN LAYER   2 AT END OF TIME STEP   2 IN STRESS PERIOD    1
  ---------------------------------------------------------------------------

            1           2           3           4           5           6           7           8           9          10
 ........................................................................................................................
   1   -25.00      -25.00      -25.00      -25.00      -25.00      -25.00      -25.00      -25.00      -25.00      -25.00    
1
  HEAD IN LAYER   3 AT END OF TIME STEP   2 IN STRESS PERIOD    1
  ---------------------------------------------------------------------------

            1           2           3           4           5           6           7           8           9          10
 ........................................................................................................................
   1   -25.00      -25.00      -25.00      -25.00      -25.00      -25.00      -25.00      -25.00      -25.00      -25.00    

 HEAD WILL BE SAVED ON UNIT 1022 AT END OF TIME STEP    2, STRESS PERIOD    1


  UZF-1 BUDGET FOR ENTIRE MODEL AT END OF TIME STEP    2, STRESS PERIOD   1
  ------------------------------------------------------------------------------

     CUMULATIVE UZF-1      L**3       RATES FOR THIS TIME STEP      L**3/T
     ------------------                 ------------------------

           IN:                                      IN:
           ---                                      ---
                 GWF =           0.0000                   GWF =           0.0000
        INFILTRATION =       32000.0000          INFILTRATION =        8000.0000
             REJ-INF =           0.0000               REJ-INF =           0.0000
                UZET =           0.0000                  UZET =           0.0000
             STORAGE =           0.0000               STORAGE =           0.0000

            TOTAL IN =       32000.0000              TOTAL IN =        8000.0000

          OUT:                                     OUT:
          ----                                     ----
                 GWF =           0.0000                   GWF =           0.0000
        INFILTRATION =           0.0000          INFILTRATION =           0.0000
             REJ-INF =           0.0000               REJ-INF =           0.0000
                UZET =       6.7462E-02                  UZET =       2.2487E-02
             STORAGE =       31999.9325               STORAGE =        7999.9775

           TOTAL OUT =       32000.0000             TOTAL OUT =        8000.0000

            IN - OUT =       3.6380E-12              IN - OUT =      -1.8190E-12

 PERCENT DISCREPANCY =           0.00     PERCENT DISCREPANCY =          -0.00



  VOLUME BUDGET FOR ENTIRE MODEL AT END OF TIME STEP    2, STRESS PERIOD   1
  ---------------------------------------------------------------------------------------------------

     CUMULATIVE VOLUME      L**3       RATES FOR THIS TIME STEP      L**3/T          PACKAGE NAME    
     ------------------                 ------------------------                     ----------------

           IN:                                      IN:
           ---                                      ---
              STO-SS =           0.0000                STO-SS =           0.0000     STORAGE         
              STO-SY =           0.0000                STO-SY =           0.0000     STORAGE         
                 CHD =           0.0000                   CHD =           0.0000     CHD-1           
           UZF-GWRCH =           0.0000             UZF-GWRCH =           0.0000     UZF-1           
             UZF-GWD =           0.0000               UZF-GWD =           0.0000     UZF-1           
            UZF-GWET =           0.0000              UZF-GWET =           0.0000     UZF-1           

            TOTAL IN =           0.0000              TOTAL IN =           0.0000

          OUT:                                     OUT:
          ----                                     ----
              STO-SS =           0.0000                STO-SS =           0.0000     STORAGE         
              STO-SY =           0.0000                STO-SY =           0.0000     STORAGE         
                 CHD =           0.0000                   CHD =           0.0000     CHD-1           
           UZF-GWRCH =           0.0000             UZF-GWRCH =           0.0000     UZF-1           
             UZF-GWD =           0.0000               UZF-GWD =           0.0000     UZF-1           
            UZF-GWET =           0.0000              UZF-GWET =           0.0000     UZF-1           

           TOTAL OUT =           0.0000             TOTAL OUT =           0.0000

            IN - OUT =           0.0000              IN - OUT =           0.0000

 PERCENT DISCREPANCY =           0.00     PERCENT DISCREPANCY =           0.00




         TIME SUMMARY AT END OF TIME STEP    2 IN STRESS PERIOD    1
                    SECONDS     MINUTES      HOURS       DAYS        YEARS
                    -----------------------------------------------------------
   TIME STEP LENGTH 1.72800E+05  2880.0      48.000      2.0000     5.47570E-03
 STRESS PERIOD TIME 3.45600E+05  5760.0      96.000      4.0000     1.09514E-02
         TOTAL TIME 3.45600E+05  5760.0      96.000      4.0000     1.09514E-02


end timestep


start timestep kper="1" kstp="3" mode="normal"

 UBDSV1 SAVING     FLOW-JA-FACE ON UNIT   1020 AT TIME STEP      3, STRESS PERIOD      1
 UBDSV06 SAVING     FLOW-JA-FACE IN MODEL GWF_1            PACKAGE UZF-1           CONNECTED TO MODEL GWF_1            PACKAGE UZF-1            ON UNIT   1014 AT TIME STEP      3, STRESS PERIOD      1
 UBDSV06 SAVING              GWF IN MODEL GWF_1            PACKAGE UZF-1           CONNECTED TO MODEL GWF_1            PACKAGE GWF_1            ON UNIT   1014 AT TIME STEP      3, STRESS PERIOD      1
 UBDSV06 SAVING     INFILTRATION IN MODEL GWF_1            PACKAGE UZF-1           CONNECTED TO MODEL GWF_1            PACKAGE UZF-1            ON UNIT   1014 AT TIME STEP      3, STRESS PERIOD      1
 UBDSV06 SAVING          REJ-INF IN MODEL GWF_1            PACKAGE UZF-1           CONNECTED TO MODEL GWF_1            PACKAGE UZF-1            ON UNIT   1014 AT TIME STEP      3, STRESS PERIOD      1
 UBDSV06 SAVING             UZET IN MODEL GWF_1            PACKAGE UZF-1           CONNECTED TO MODEL GWF_1            PACKAGE UZF-1            ON UNIT   1014 AT TIME STEP      3, STRESS PERIOD      1
 UBDSV06 SAVING          STORAGE IN MODEL GWF_1            PACKAGE UZF-1           CONNECTED TO MODEL GWF_1            PACKAGE UZF-1            ON UNIT   1014 AT TIME STEP      3, STRESS PERIOD      1

 CHD PACKAGE (CHD-1) FLOW RATES   PERIOD      1   STEP        3
 -----------------------------------------------
   NUMBER   CELLID                    RATE      
 -----------------------------------------------
     1      (3,1,1)               0.0000000     
     2      (3,1,10)              0.0000000     
 -----------------------------------------------




 UZF-GWRCH PACKAGE (UZF-1) FLOW RATES   PERIOD      1   STEP        3
 ----------------------------------------------------------------------------------------
   NUMBER   CELLID                    RATE       NAME                                    
 ----------------------------------------------------------------------------------------
     1      (1,1,2)               0.0000000      UZF01                                   
     2      (1,1,3)               0.0000000      UZF02                                   
     3      (1,1,4)               0.0000000      UZF03                                   
     4      (1,1,5)               0.0000000      UZF04                                   
     5      (1,1,6)               0.0000000      UZF05                                   
     6      (1,1,7)               0.0000000      UZF06                                   
     7      (1,1,8)               0.0000000      UZF07                                   
     8      (1,1,9)               0.0000000      UZF08                                   
     9      (2,1,2)               0.0000000      UZF08                                   
     10     (2,1,3)               0.0000000      UZF10                                   
     11     (2,1,4)               0.0000000      UZF11                                   
     12     (2,1,5)               0.0000000      UZF12                                   
     13     (2,1,6)               0.0000000      UZF13                                   
     14     (2,1,7)               0.0000000      UZF14                                   
     15     (2,1,8)               0.0000000      UZF15                                   
     16     (2,1,9)               0.0000000      UZF16                                   
     17     (3,1,2)               0.0000000      UZF17                                   
     18     (3,1,3)               0.0000000      UZF18                                   
     19     (3,1,4)               0.0000000      UZF19                                   
     20     (3,1,5)               0.0000000      UZF20                                   
     21     (3,1,6)               0.0000000      UZF21                                   
     22     (3,1,7)               0.0000000      UZF22                                   
     23     (3,1,8)               0.0000000      UZF23                                   
     24     (3,1,9)               0.0000000      UZF24                                   
 ----------------------------------------------------------------------------------------




 UZF-GWD PACKAGE (UZF-1) FLOW RATES   PERIOD      1   STEP        3
 ----------------------------------------------------------------------------------------
   NUMBER   CELLID                    RATE       NAME                                    
 ----------------------------------------------------------------------------------------
     1      (1,1,2)               0.0000000      UZF01                                   
     2      (1,1,3)               0.0000000      UZF02                                   
     3      (1,1,4)               0.0000000      UZF03                                   
     4      (1,1,5)               0.0000000      UZF04                                   
     5      (1,1,6)               0.0000000      UZF05                                   
     6      (1,1,7)               0.0000000      UZF06                                   
     7      (1,1,8)               0.0000000      UZF07                                   
     8      (1,1,9)               0.0000000      UZF08                                   
     9      (2,1,2)               0.0000000      UZF08                                   
     10     (2,1,3)               0.0000000      UZF10                                   
     11     (2,1,4)               0.0000000      UZF11                                   
     12     (2,1,5)               0.0000000      UZF12                                   
     13     (2,1,6)               0.0000000      UZF13                                   
     14     (2,1,7)               0.0000000      UZF14                                   
     15     (2,1,8)               0.0000000      UZF15                                   
     16     (2,1,9)               0.0000000      UZF16                                   
     17     (3,1,2)               0.0000000      UZF17                                   
     18     (3,1,3)               0.0000000      UZF18                                   
     19     (3,1,4)               0.0000000      UZF19                                   
     20     (3,1,5)               0.0000000      UZF20                                   
     21     (3,1,6)               0.0000000      UZF21                                   
     22     (3,1,7)               0.0000000      UZF22                                   
     23     (3,1,8)               0.0000000      UZF23                                   
     24     (3,1,9)               0.0000000      UZF24                                   
 ----------------------------------------------------------------------------------------




 UZF-GWET PACKAGE (UZF-1) FLOW RATES   PERIOD      1   STEP        3
 ----------------------------------------------------------------------------------------
   NUMBER   CELLID                    RATE       NAME                                    
 ----------------------------------------------------------------------------------------
     1      (1,1,2)               0.0000000      UZF01                                   
     2      (1,1,3)               0.0000000      UZF02                                   
     3      (1,1,4)               0.0000000      UZF03                                   
[...]
         TOTAL TIME 2.17728E+08 3.62880E+06  60480.      2520.0      6.8994    


end timestep


start timestep kper="5" kstp="50" mode="normal"

 UBDSV1 SAVING     FLOW-JA-FACE ON UNIT   1020 AT TIME STEP     50, STRESS PERIOD      5
 UBDSV06 SAVING     FLOW-JA-FACE IN MODEL GWF_1            PACKAGE UZF-1           CONNECTED TO MODEL GWF_1            PACKAGE UZF-1            ON UNIT   1014 AT TIME STEP     50, STRESS PERIOD      5
 UBDSV06 SAVING              GWF IN MODEL GWF_1            PACKAGE UZF-1           CONNECTED TO MODEL GWF_1            PACKAGE GWF_1            ON UNIT   1014 AT TIME STEP     50, STRESS PERIOD      5
 UBDSV06 SAVING     INFILTRATION IN MODEL GWF_1            PACKAGE UZF-1           CONNECTED TO MODEL GWF_1            PACKAGE UZF-1            ON UNIT   1014 AT TIME STEP     50, STRESS PERIOD      5
 UBDSV06 SAVING          REJ-INF IN MODEL GWF_1            PACKAGE UZF-1           CONNECTED TO MODEL GWF_1            PACKAGE UZF-1            ON UNIT   1014 AT TIME STEP     50, STRESS PERIOD      5
 UBDSV06 SAVING             UZET IN MODEL GWF_1            PACKAGE UZF-1           CONNECTED TO MODEL GWF_1            PACKAGE UZF-1            ON UNIT   1014 AT TIME STEP     50, STRESS PERIOD      5
 UBDSV06 SAVING          STORAGE IN MODEL GWF_1            PACKAGE UZF-1           CONNECTED TO MODEL GWF_1            PACKAGE UZF-1            ON UNIT   1014 AT TIME STEP     50, STRESS PERIOD      5

 CHD PACKAGE (CHD-1) FLOW RATES   PERIOD      5   STEP       50
 -----------------------------------------------
   NUMBER   CELLID                    RATE      
 -----------------------------------------------
     1      (3,1,1)              -32.099459     
     2      (3,1,10)             -32.099459     
 -----------------------------------------------




 UZF-GWRCH PACKAGE (UZF-1) FLOW RATES   PERIOD      5   STEP       50
 ----------------------------------------------------------------------------------------
   NUMBER   CELLID                    RATE       NAME                                    
 ----------------------------------------------------------------------------------------
     1      (1,1,2)               0.0000000      UZF01                                   
     2      (1,1,3)               0.0000000      UZF02                                   
     3      (1,1,4)               0.0000000      UZF03                                   
     4      (1,1,5)               0.0000000      UZF04                                   
     5      (1,1,6)               0.0000000      UZF05                                   
     6      (1,1,7)               0.0000000      UZF06                                   
     7      (1,1,8)               0.0000000      UZF07                                   
     8      (1,1,9)               0.0000000      UZF08                                   
     9      (2,1,2)               0.0000000      UZF08                                   
     10     (2,1,3)               0.0000000      UZF10                                   
     11     (2,1,4)               0.0000000      UZF11                                   
     12     (2,1,5)               0.0000000      UZF12                                   
     13     (2,1,6)               0.0000000      UZF13                                   
     14     (2,1,7)               0.0000000      UZF14                                   
     15     (2,1,8)               0.0000000      UZF15                                   
     16     (2,1,9)               0.0000000      UZF16                                   
     17     (3,1,2)               6.2732367      UZF17                                   
     18     (3,1,3)               6.1780220      UZF18                                   
     19     (3,1,4)               6.1203575      UZF19                                   
     20     (3,1,5)               6.0930261      UZF20                                   
     21     (3,1,6)               6.0930261      UZF21                                   
     22     (3,1,7)               6.1203575      UZF22                                   
     23     (3,1,8)               6.1780220      UZF23                                   
     24     (3,1,9)               6.2732367      UZF24                                   
 ----------------------------------------------------------------------------------------




 UZF-GWD PACKAGE (UZF-1) FLOW RATES   PERIOD      5   STEP       50
 ----------------------------------------------------------------------------------------
   NUMBER   CELLID                    RATE       NAME                                    
 ----------------------------------------------------------------------------------------
     1      (1,1,2)               0.0000000      UZF01                                   
     2      (1,1,3)               0.0000000      UZF02                                   
     3      (1,1,4)               0.0000000      UZF03                                   
     4      (1,1,5)               0.0000000      UZF04                                   
     5      (1,1,6)               0.0000000      UZF05                                   
     6      (1,1,7)               0.0000000      UZF06                                   
     7      (1,1,8)               0.0000000      UZF07                                   
     8      (1,1,9)               0.0000000      UZF08                                   
     9      (2,1,2)               0.0000000      UZF08                                   
     10     (2,1,3)               0.0000000      UZF10                                   
     11     (2,1,4)               0.0000000      UZF11                                   
     12     (2,1,5)               0.0000000      UZF12                                   
     13     (2,1,6)               0.0000000      UZF13                                   
     14     (2,1,7)               0.0000000      UZF14                                   
     15     (2,1,8)               0.0000000      UZF15                                   
     16     (2,1,9)               0.0000000      UZF16                                   
     17     (3,1,2)               0.0000000      UZF17                                   
     18     (3,1,3)               0.0000000      UZF18                                   
     19     (3,1,4)               0.0000000      UZF19                                   
     20     (3,1,5)               0.0000000      UZF20                                   
     21     (3,1,6)               0.0000000      UZF21                                   
     22     (3,1,7)               0.0000000      UZF22                                   
     23     (3,1,8)               0.0000000      UZF23                                   
     24     (3,1,9)               0.0000000      UZF24                                   
 ----------------------------------------------------------------------------------------




 UZF-GWET PACKAGE (UZF-1) FLOW RATES   PERIOD      5   STEP       50
 ----------------------------------------------------------------------------------------
   NUMBER   CELLID                    RATE       NAME                                    
 ----------------------------------------------------------------------------------------
     1      (1,1,2)               0.0000000      UZF01                                   
     2      (1,1,3)               0.0000000      UZF02                                   
     3      (1,1,4)               0.0000000      UZF03                                   
     4      (1,1,5)               0.0000000      UZF04                                   
     5      (1,1,6)               0.0000000      UZF05                                   
     6      (1,1,7)               0.0000000      UZF06                                   
     7      (1,1,8)               0.0000000      UZF07                                   
     8      (1,1,9)               0.0000000      UZF08                                   
     9      (2,1,2)               0.0000000      UZF08                                   
     10     (2,1,3)               0.0000000      UZF10                                   
     11     (2,1,4)               0.0000000      UZF11                                   
     12     (2,1,5)               0.0000000      UZF12                                   
     13     (2,1,6)               0.0000000      UZF13                                   
     14     (2,1,7)               0.0000000      UZF14                                   
     15     (2,1,8)               0.0000000      UZF15                                   
     16     (2,1,9)               0.0000000      UZF16                                   
     17     (3,1,2)               0.0000000      UZF17                                   
     18     (3,1,3)               0.0000000      UZF18                                   
     19     (3,1,4)               0.0000000      UZF19                                   
     20     (3,1,5)               0.0000000      UZF20                                   
     21     (3,1,6)               0.0000000      UZF21                                   
     22     (3,1,7)               0.0000000      UZF22                                   
     23     (3,1,8)               0.0000000      UZF23                                   
     24     (3,1,9)               0.0000000      UZF24                                   
 ----------------------------------------------------------------------------------------




 UZF-1 PACKAGE - SUMMARY OF FLOWS FOR EACH CONTROL VOLUME   PERIOD      5   STEP       50
 ----------------------------------------------------------------------------------------------------------------------------------------------------
                                                                                                                                           PERCENT   
   NUMBER   CELLID                  INFLOW      OUTFLOW        GWF      INFILTRATION   REJ INF        UZET       STORAGE      IN - OUT    DIFFERENCE 
 ----------------------------------------------------------------------------------------------------------------------------------------------------
     1      (1,1,2)               0.0000      -1.1760       0.0000       0.0000       0.0000       0.0000       1.1760       2.33147E-14  1.98249E-12
     2      (1,1,3)               0.0000      -1.1760       0.0000       0.0000       0.0000       0.0000       1.1760       2.33147E-14  1.98249E-12
     3      (1,1,4)               0.0000      -1.1760       0.0000       0.0000       0.0000       0.0000       1.1760       2.33147E-14  1.98249E-12
     4      (1,1,5)               0.0000      -1.1760       0.0000       0.0000       0.0000       0.0000       1.1760       2.33147E-14  1.98249E-12
     5      (1,1,6)               0.0000      -1.1760       0.0000       0.0000       0.0000       0.0000       1.1760       2.33147E-14  1.98249E-12
     6      (1,1,7)               0.0000      -1.1760       0.0000       0.0000       0.0000       0.0000       1.1760       2.33147E-14  1.98249E-12
     7      (1,1,8)               0.0000      -1.1760       0.0000       0.0000       0.0000       0.0000       1.1760       2.33147E-14  1.98249E-12
     8      (1,1,9)               0.0000      -1.1760       0.0000       0.0000       0.0000       0.0000       1.1760       2.33147E-14  1.98249E-12
     9      (2,1,2)               1.1760      -4.7591       0.0000       0.0000       0.0000      -1.75789E-02  3.6009       3.36060E-04  7.03525E-03
     10     (2,1,3)               1.1760      -4.7591       0.0000       0.0000       0.0000      -1.75789E-02  3.6009       3.36060E-04  7.03525E-03
     11     (2,1,4)               1.1760      -4.7591       0.0000       0.0000       0.0000      -1.75789E-02  3.6009       3.36060E-04  7.03525E-03
     12     (2,1,5)               1.1760      -4.7591       0.0000       0.0000       0.0000      -1.75789E-02  3.6009       3.36060E-04  7.03525E-03
     13     (2,1,6)               1.1760      -4.7591       0.0000       0.0000       0.0000      -1.75789E-02  3.6009       3.36060E-04  7.03525E-03
     14     (2,1,7)               1.1760      -4.7591       0.0000       0.0000       0.0000      -1.75789E-02  3.6009       3.36060E-04  7.03525E-03
     15     (2,1,8)               1.1760      -4.7591       0.0000       0.0000       0.0000      -1.75789E-02  3.6009       3.36060E-04  7.03525E-03
     16     (2,1,9)               1.1760      -4.7591       0.0000       0.0000       0.0000      -1.75789E-02  3.6009       3.36060E-04  7.03525E-03
     17     (3,1,2)               4.7591       0.0000      -6.2732       0.0000       0.0000       0.0000       1.5142       7.64007E-07  1.21788E-05
     18     (3,1,3)               4.7591       0.0000      -6.1780       0.0000       0.0000       0.0000       1.4190       7.64007E-07  1.23665E-05
     19     (3,1,4)               4.7591       0.0000      -6.1204       0.0000       0.0000       0.0000       1.3613       7.64008E-07  1.24831E-05
     20     (3,1,5)               4.7591       0.0000      -6.0930       0.0000       0.0000       0.0000       1.3340       7.64007E-07  1.25390E-05
     21     (3,1,6)               4.7591       0.0000      -6.0930       0.0000       0.0000       0.0000       1.3340       7.64007E-07  1.25390E-05
     22     (3,1,7)               4.7591       0.0000      -6.1204       0.0000       0.0000       0.0000       1.3613       7.64007E-07  1.24830E-05
     23     (3,1,8)               4.7591       0.0000      -6.1780       0.0000       0.0000       0.0000       1.4190       7.64007E-07  1.23665E-05
     24     (3,1,9)               4.7591       0.0000      -6.2732       0.0000       0.0000       0.0000       1.5142       7.64007E-07  1.21788E-05
 ----------------------------------------------------------------------------------------------------------------------------------------------------


1
  HEAD IN LAYER   1 AT END OF TIME STEP  50 IN STRESS PERIOD    5
  ---------------------------------------------------------------------------

            1           2           3           4           5           6           7           8           9          10
 ........................................................................................................................
   1   -25.00      -24.94      -24.89      -24.86      -24.84      -24.84      -24.86      -24.89      -24.94      -25.00    
1
  HEAD IN LAYER   2 AT END OF TIME STEP  50 IN STRESS PERIOD    5
  ---------------------------------------------------------------------------

            1           2           3           4           5           6           7           8           9          10
 ........................................................................................................................
   1   -25.00      -24.94      -24.89      -24.86      -24.84      -24.84      -24.86      -24.89      -24.94      -25.00    
1
  HEAD IN LAYER   3 AT END OF TIME STEP  50 IN STRESS PERIOD    5
  ---------------------------------------------------------------------------

            1           2           3           4           5           6           7           8           9          10
 ........................................................................................................................
   1   -25.00      -24.94      -24.89      -24.86      -24.84      -24.84      -24.86      -24.89      -24.94      -25.00    

 HEAD WILL BE SAVED ON UNIT 1022 AT END OF TIME STEP   50, STRESS PERIOD    5


  UZF-1 BUDGET FOR ENTIRE MODEL AT END OF TIME STEP   50, STRESS PERIOD   5
  ------------------------------------------------------------------------------

     CUMULATIVE UZF-1      L**3       RATES FOR THIS TIME STEP      L**3/T
     ------------------                 ------------------------

           IN:                                      IN:
           ---                                      ---
                 GWF =           0.0000                   GWF =           0.0000
        INFILTRATION =      480000.0000          INFILTRATION =           0.0000
             REJ-INF =           0.0000               REJ-INF =           0.0000
                UZET =           0.0000                  UZET =           0.0000
             STORAGE =      512074.1464               STORAGE =          49.4726

            TOTAL IN =      992074.1464              TOTAL IN =          49.4726

          OUT:                                     OUT:
          ----                                     ----
                 GWF =       96138.6589                   GWF =          49.3293
        INFILTRATION =           0.0000          INFILTRATION =           0.0000
             REJ-INF =           0.0000               REJ-INF =           0.0000
                UZET =         995.7510                  UZET =           0.1406
             STORAGE =      894878.6925               STORAGE =           0.0000

           TOTAL OUT =      992013.1025             TOTAL OUT =          49.4699

            IN - OUT =          61.0439              IN - OUT =       2.6946E-03

 PERCENT DISCREPANCY =           0.01     PERCENT DISCREPANCY =           0.01



  VOLUME BUDGET FOR ENTIRE MODEL AT END OF TIME STEP   50, STRESS PERIOD   5
  ---------------------------------------------------------------------------------------------------

     CUMULATIVE VOLUME      L**3       RATES FOR THIS TIME STEP      L**3/T          PACKAGE NAME    
     ------------------                 ------------------------                     ----------------

           IN:                                      IN:
           ---                                      ---
              STO-SS =           1.3851                STO-SS =       3.8148E-03     STORAGE         
              STO-SY =        5381.1303                STO-SY =          14.8655     STORAGE         
                 CHD =           0.0000                   CHD =           0.0000     CHD-1           
           UZF-GWRCH =       96138.6589             UZF-GWRCH =          49.3293     UZF-1           
             UZF-GWD =           0.0000               UZF-GWD =           0.0000     UZF-1           
            UZF-GWET =           0.0000              UZF-GWET =           0.0000     UZF-1           

            TOTAL IN =      101521.1743              TOTAL IN =          64.1986

          OUT:                                     OUT:
          ----                                     ----
              STO-SS =           6.2557                STO-SS =           0.0000     STORAGE         
              STO-SY =       24610.3617                STO-SY =           0.0000     STORAGE         
                 CHD =       76904.6242                   CHD =          64.1989     CHD-1           
           UZF-GWRCH =           0.0000             UZF-GWRCH =           0.0000     UZF-1           
             UZF-GWD =           0.0000               UZF-GWD =           0.0000     UZF-1           
            UZF-GWET =           0.0000              UZF-GWET =           0.0000     UZF-1           

           TOTAL OUT =      101521.2416             TOTAL OUT =          64.1989

            IN - OUT =      -6.7251E-02              IN - OUT =      -3.4924E-04

 PERCENT DISCREPANCY =          -0.00     PERCENT DISCREPANCY =          -0.00




         TIME SUMMARY AT END OF TIME STEP   50 IN STRESS PERIOD    5
                    SECONDS     MINUTES      HOURS       DAYS        YEARS
                    -----------------------------------------------------------
   TIME STEP LENGTH 3.45600E+06  57600.      960.00      40.000     0.10951    
 STRESS PERIOD TIME 1.72800E+08 2.88000E+06  48000.      2000.0      5.4757    
         TOTAL TIME 2.21184E+08 3.68640E+06  61440.      2560.0      7.0089    


end timestep

