                                   MODFLOW 6
                U.S. GEOLOGICAL SURVEY MODULAR HYDROLOGIC MODEL
                            VERSION 6.6.1 02/10/2025

   MODFLOW 6 compiled Feb 14 2025 13:40:10 with Intel(R) Fortran Intel(R) 64
   Compiler Classic for applications running on Intel(R) 64, Version 2021.7.0
                             Build 20220726_000000

This software has been approved for release by the U.S. Geological 
Survey (USGS). Although the software has been subjected to rigorous 
review, the USGS reserves the right to update the software as needed 
pursuant to further analysis and review. No warranty, expressed or 
implied, is made by the USGS or the U.S. Government as to the 
functionality of the software and related material nor shall the 
fact of release constitute any such warranty. Furthermore, the 
software is released on condition that neither the USGS nor the U.S. 
Government shall be held liable for any damages resulting from its 
authorized or unauthorized use. Also refer to the USGS Water 
Resources Software User Rights Notice for complete use, copyright, 
and distribution information.


As a work of the United States Government, this USGS product is 
in the public domain within the United States. You can copy, 
modify, distribute, and perform the work, even for commercial 
purposes, all without asking permission. Additionally, USGS 
waives copyright and related rights in the work worldwide 
through CC0 1.0 Universal Public Domain Dedication 
(https://creativecommons.org/publicdomain/zero/1.0/).

The following GNU Lesser General Public License (LGPL) libraries
are used in this USGS product:

    SPARSKIT version 2.0
      ilut, luson, and qsplit 
      (https://www-users.cse.umn.edu/~saad/software/SPARSKIT/)

    RCM - Reverse Cuthill McKee Ordering
      (https://people.math.sc.edu/Burkardt/f_src/rcm/rcm.html)

    BLAS - Basic Linear Algebra Subprograms Level 1
      (https://people.math.sc.edu/Burkardt/f_src/blas1_d/blas1_d.html)

    SPARSEKIT - Sparse Matrix Utility Package
      amux, dperm, dvperm, rperm, and cperm
      (https://people.sc.fsu.edu/~jburkardt/f77_src/sparsekit/sparsekit.html)

The following BSD-3 License libraries are used in this USGS product:

    Modern Fortran DAG Library
      Copyright (c) 2018, Jacob Williams
      All rights reserved.
      (https://github.com/jacobwilliams/daglib)

MODFLOW 6 compiler options: /O2 /heap-arrays:0 /fpe:0 /traceback /nologo /fpp
/c /module:win64\mod_mf6\ /object:win64\obj_mf6\

System command used to initiate simulation:
C:\Users\gross.DESKTOP-AIRQM2M\anaconda3\Scripts\mf6.exe

MODFLOW was compiled using uniform precision.

Real Variables
  KIND: 8
  TINY (smallest non-zero value):    2.225074-308
  HUGE (largest value):    1.797693+308
  PRECISION: 15
  SIZE IN BITS: 64

Integer Variables
  KIND: 4
  HUGE (largest value): 2147483647
  SIZE IN BITS: 32

Long Integer Variables
  KIND: 8
  HUGE (largest value): 9223372036854775807
  SIZE IN BITS: 64

Logical Variables
  KIND: 4
  SIZE IN BITS: 32
 

 OPENED mfsim.nam
 FILE TYPE:NAM6               UNIT 1001   STATUS:OLD                 
 FORMAT:FORMATTED              ACCESS:SEQUENTIAL          
 ACTION:READ                

 # File generated by Flopy version 3.9.1 on 05/20/2025 at 19:06:47.

 OPENED ex-gwf-maw-p02.tdis
 FILE TYPE:TDIS6              UNIT 1002   STATUS:OLD                 
 FORMAT:FORMATTED              ACCESS:SEQUENTIAL          
 ACTION:READ                

 # File generated by Flopy version 3.9.1 on 05/20/2025 at 19:06:47.

 OPENED ex-gwf-maw-p02.nam
 FILE TYPE:GWF6               UNIT 1003   STATUS:OLD                 
 FORMAT:FORMATTED              ACCESS:SEQUENTIAL          
 ACTION:READ                

 # File generated by Flopy version 3.9.1 on 05/20/2025 at 19:06:47.

 OPENED ex-gwf-maw-p02.dis
 FILE TYPE:DIS6               UNIT 1004   STATUS:OLD                 
 FORMAT:FORMATTED              ACCESS:SEQUENTIAL          
 ACTION:READ                

 # File generated by Flopy version 3.9.1 on 05/20/2025 at 19:06:47.

 OPENED ex-gwf-maw-p02.npf
 FILE TYPE:NPF6               UNIT 1005   STATUS:OLD                 
 FORMAT:FORMATTED              ACCESS:SEQUENTIAL          
 ACTION:READ                

 # File generated by Flopy version 3.9.1 on 05/20/2025 at 19:06:47.

 OPENED ex-gwf-maw-p02.sto
 FILE TYPE:STO6               UNIT 1006   STATUS:OLD                 
 FORMAT:FORMATTED              ACCESS:SEQUENTIAL          
 ACTION:READ                

 # File generated by Flopy version 3.9.1 on 05/20/2025 at 19:06:47.

 OPENED ex-gwf-maw-p02.ic
 FILE TYPE:IC6                UNIT 1007   STATUS:OLD                 
 FORMAT:FORMATTED              ACCESS:SEQUENTIAL          
 ACTION:READ                

 # File generated by Flopy version 3.9.1 on 05/20/2025 at 19:06:47.

 OPENED ex-gwf-maw-p02.oc
 FILE TYPE:OC6       UNIT 1008   STATUS:OLD                 
 FORMAT:FORMATTED              ACCESS:SEQUENTIAL          
 ACTION:READ                


 OPENED ex-gwf-maw-p02.maw
 FILE TYPE:MAW6      UNIT 1009   STATUS:OLD                 
 FORMAT:FORMATTED              ACCESS:SEQUENTIAL          
 ACTION:READ                


 READING SIMULATION OPTIONS
    MAXIMUM NUMBER OF ERRORS THAT WILL BE STORED IS 1000
 END OF SIMULATION OPTIONS

 READING SIMULATION TIMING

 TDIS -- TEMPORAL DISCRETIZATION PACKAGE,
 VERSION 1 : 11/13/2014 - INPUT READ FROM MEMPATH: __INPUT__/SIM/TDIS                                
 PROCESSING TDIS OPTIONS
    SIMULATION TIME UNIT IS DAYS
 END OF TDIS OPTIONS
 PROCESSING TDIS DIMENSIONS
    1 STRESS PERIOD(S) IN SIMULATION
 END OF TDIS DIMENSIONS
 PROCESSING TDIS PERIODDATA


 STRESS PERIOD     LENGTH       TIME STEPS     MULTIPLIER FOR DELT
 ----------------------------------------------------------------------------
        1         2.314815         50                    1.200
 END OF TDIS PERIODDATA
 END OF SIMULATION TIMING

 READING SIMULATION MODELS
    GWF6 model 1 will be created
 END OF SIMULATION MODELS

 READING SIMULATION EXCHANGES
 END OF SIMULATION EXCHANGES

 READING SOLUTIONGROUP

 Creating solution: SLN_1           

 OPENED ex-gwf-maw-p02.ims
 FILE TYPE:IMS   UNIT 1011   STATUS:OLD                 
 FORMAT:FORMATTED              ACCESS:SEQUENTIAL          
 ACTION:READ                

 END OF SOLUTIONGROUP

PROCESSING MODEL CONNECTIONS

 IMS -- ITERATIVE MODEL SOLUTION PACKAGE, VERSION 6, 4/28/2017
         INPUT READ FROM UNIT 1011
 # File generated by Flopy version 3.9.1 on 05/20/2025 at 19:06:47.

 PROCESSING IMS OPTIONS
 END OF IMS OPTIONS

 PROCESSING IMS NONLINEAR
 END OF IMS NONLINEAR DATA
 ***UNDER-RELAXATION WILL NOT BE USED***
 

 PROCESSING LINEAR DATA
 END OF LINEAR DATA
 ***IMS LINEAR SOLVER WILL BE USED***

 IMSLINEAR -- UNSTRUCTURED LINEAR SOLUTION PACKAGE, VERSION 8, 04/28/2017
 A symmetric matrix will be solved

 OUTER ITERATION CONVERGENCE CRITERION    (DVCLOSE) =    0.100000E-08
 MAXIMUM NUMBER OF OUTER ITERATIONS        (MXITER) = 500
 SOLVER PRINTOUT INDEX                     (IPRIMS) = 1
 NONLINEAR ITERATION METHOD            (NONLINMETH) = 0
 LINEAR SOLUTION METHOD                   (LINMETH) = 1

       SOLUTION BY THE        CONJUGATE-GRADIENT       METHOD
 ------------------------------------------------------------------
 MAXIMUM OF 500 CALLS OF SOLUTION ROUTINE
 MAXIMUM OF 100 INTERNAL ITERATIONS PER CALL TO SOLUTION ROUTINE
 LINEAR ACCELERATION METHOD            = CG        
 MATRIX PRECONDITIONING TYPE           = INCOMPLETE LU       
 MATRIX SCALING APPROACH               = NO SCALING          
 MATRIX REORDERING APPROACH            = ORIGINAL ORDERING        
 NUMBER OF ORTHOGONALIZATIONS          = 0
 HEAD CHANGE CRITERION FOR CLOSURE     =    0.10000E-08
 RESIDUAL CHANGE CRITERION FOR CLOSURE =    0.10000E-03
 RESIDUAL CONVERGENCE OPTION           = 0
 RESIDUAL CONVERGENCE NORM             = INFINITY NORM   
 RELAXATION FACTOR                     =    0.00000E+00



 
    Solving:  Stress period:     1    Time step:     1
 
1
 STRESS PERIOD NO. 1, LENGTH =   2.314815    
 ------------------------------------------
 NUMBER OF TIME STEPS = 50
 MULTIPLIER FOR DELT =     1.200
 INITIAL TIME STEP SIZE =  0.5087820E-04

 SLN_1 OUTER ITERATION SUMMARY
 ----------------------------------------------------------------------------------------------------------
                                OUTER      INNER                    STEP   MAXIMUM CHANGE MODEL-(CELLID) OR
 OUTER ITERATION STEP       ITERATION  ITERATION  MAXIMUM CHANGE SUCCESS             MODEL-PACKAGE-(NUMBER)
 ----------------------------------------------------------------------------------------------------------
 Model                              1          3      -8.5919452                            1_GWF-(MAW_1-1)
 Model                              2          1       0.0000000       *                                   
 ----------------------------------------------------------------------------------------------------------


 2 CALLS TO NUMERICAL SOLUTION IN TIME STEP 1 STRESS PERIOD 1
 4 TOTAL ITERATIONS
 
    Solving:  Stress period:     1    Time step:     2
 

 SLN_1 OUTER ITERATION SUMMARY
 ----------------------------------------------------------------------------------------------------------
                                OUTER      INNER                    STEP   MAXIMUM CHANGE MODEL-(CELLID) OR
 OUTER ITERATION STEP       ITERATION  ITERATION  MAXIMUM CHANGE SUCCESS             MODEL-PACKAGE-(NUMBER)
 ----------------------------------------------------------------------------------------------------------
 Model                              1          2 -3.12138829E-04                            1_GWF-(2,51,51)
 Model                              2          1 -1.77635684E-15       *                    1_GWF-(2,50,52)
 ----------------------------------------------------------------------------------------------------------


 2 CALLS TO NUMERICAL SOLUTION IN TIME STEP 2 STRESS PERIOD 1
 3 TOTAL ITERATIONS
 
    Solving:  Stress period:     1    Time step:     3
 

 SLN_1 OUTER ITERATION SUMMARY
 ----------------------------------------------------------------------------------------------------------
                                OUTER      INNER                    STEP   MAXIMUM CHANGE MODEL-(CELLID) OR
 OUTER ITERATION STEP       ITERATION  ITERATION  MAXIMUM CHANGE SUCCESS             MODEL-PACKAGE-(NUMBER)
 ----------------------------------------------------------------------------------------------------------
 Model                              1          2 -3.74496810E-04                            1_GWF-(2,51,51)
 Model                              2          1 -1.06581410E-14       *                    1_GWF-(2,50,52)
 ----------------------------------------------------------------------------------------------------------


 2 CALLS TO NUMERICAL SOLUTION IN TIME STEP 3 STRESS PERIOD 1
 3 TOTAL ITERATIONS
 
    Solving:  Stress period:     1    Time step:     4
 

 SLN_1 OUTER ITERATION SUMMARY
 ----------------------------------------------------------------------------------------------------------
                                OUTER      INNER                    STEP   MAXIMUM CHANGE MODEL-(CELLID) OR
 OUTER ITERATION STEP       ITERATION  ITERATION  MAXIMUM CHANGE SUCCESS             MODEL-PACKAGE-(NUMBER)
 ----------------------------------------------------------------------------------------------------------
 Model                              1          2 -4.49295708E-04                            1_GWF-(2,51,51)
 Model                              2          1 -4.08562073E-14       *                    1_GWF-(2,50,52)
 ----------------------------------------------------------------------------------------------------------


 2 CALLS TO NUMERICAL SOLUTION IN TIME STEP 4 STRESS PERIOD 1
 3 TOTAL ITERATIONS
 
    Solving:  Stress period:     1    Time step:     5
 

 SLN_1 OUTER ITERATION SUMMARY
 ----------------------------------------------------------------------------------------------------------
                                OUTER      INNER                    STEP   MAXIMUM CHANGE MODEL-(CELLID) OR
 OUTER ITERATION STEP       ITERATION  ITERATION  MAXIMUM CHANGE SUCCESS             MODEL-PACKAGE-(NUMBER)
 ----------------------------------------------------------------------------------------------------------
 Model                              1          2 -5.39010226E-04                            1_GWF-(2,51,51)
 Model                              2          1 -1.27897692E-13       *                    1_GWF-(2,50,52)
 ----------------------------------------------------------------------------------------------------------


 2 CALLS TO NUMERICAL SOLUTION IN TIME STEP 5 STRESS PERIOD 1
 3 TOTAL ITERATIONS
 
    Solving:  Stress period:     1    Time step:     6
 

 SLN_1 OUTER ITERATION SUMMARY
 ----------------------------------------------------------------------------------------------------------
                                OUTER      INNER                    STEP   MAXIMUM CHANGE MODEL-(CELLID) OR
 OUTER ITERATION STEP       ITERATION  ITERATION  MAXIMUM CHANGE SUCCESS             MODEL-PACKAGE-(NUMBER)
 ----------------------------------------------------------------------------------------------------------
 Model                              1          2 -6.46604091E-04                            1_GWF-(2,51,51)
 Model                              2          1 -3.05533376E-13       *                    1_GWF-(2,50,52)
 ----------------------------------------------------------------------------------------------------------


 2 CALLS TO NUMERICAL SOLUTION IN TIME STEP 6 STRESS PERIOD 1
 3 TOTAL ITERATIONS
 
    Solving:  Stress period:     1    Time step:     7
 

 SLN_1 OUTER ITERATION SUMMARY
 ----------------------------------------------------------------------------------------------------------
                                OUTER      INNER                    STEP   MAXIMUM CHANGE MODEL-(CELLID) OR
 OUTER ITERATION STEP       ITERATION  ITERATION  MAXIMUM CHANGE SUCCESS             MODEL-PACKAGE-(NUMBER)
 ----------------------------------------------------------------------------------------------------------
 Model                              1          2 -7.75625262E-04                            1_GWF-(2,51,51)
 Model                              2          1 -4.67181849E-13       *                    1_GWF-(2,50,52)
 ----------------------------------------------------------------------------------------------------------


 2 CALLS TO NUMERICAL SOLUTION IN TIME STEP 7 STRESS PERIOD 1
 3 TOTAL ITERATIONS
 
    Solving:  Stress period:     1    Time step:     8
 

 SLN_1 OUTER ITERATION SUMMARY
 ----------------------------------------------------------------------------------------------------------
                                OUTER      INNER                    STEP   MAXIMUM CHANGE MODEL-(CELLID) OR
 OUTER ITERATION STEP       ITERATION  ITERATION  MAXIMUM CHANGE SUCCESS             MODEL-PACKAGE-(NUMBER)
 ----------------------------------------------------------------------------------------------------------
 Model                              1          2 -9.30319053E-04                            1_GWF-(2,51,51)
 Model                              2          1 -4.20996571E-13       *                    1_GWF-(2,50,52)
 ----------------------------------------------------------------------------------------------------------


 2 CALLS TO NUMERICAL SOLUTION IN TIME STEP 8 STRESS PERIOD 1
 3 TOTAL ITERATIONS
 
    Solving:  Stress period:     1    Time step:     9
 

 SLN_1 OUTER ITERATION SUMMARY
 ----------------------------------------------------------------------------------------------------------
                                OUTER      INNER                    STEP   MAXIMUM CHANGE MODEL-(CELLID) OR
 OUTER ITERATION STEP       ITERATION  ITERATION  MAXIMUM CHANGE SUCCESS             MODEL-PACKAGE-(NUMBER)
 ----------------------------------------------------------------------------------------------------------
 Model                              1          2 -1.11576225E-03                            1_GWF-(2,51,51)
 Model                              2          1 -2.34479103E-13       *                    1_GWF-(2,50,52)
 ----------------------------------------------------------------------------------------------------------


 2 CALLS TO NUMERICAL SOLUTION IN TIME STEP 9 STRESS PERIOD 1
 3 TOTAL ITERATIONS
 
    Solving:  Stress period:     1    Time step:    10
 

 SLN_1 OUTER ITERATION SUMMARY
 ----------------------------------------------------------------------------------------------------------
                                OUTER      INNER                    STEP   MAXIMUM CHANGE MODEL-(CELLID) OR
 OUTER ITERATION STEP       ITERATION  ITERATION  MAXIMUM CHANGE SUCCESS             MODEL-PACKAGE-(NUMBER)
 ----------------------------------------------------------------------------------------------------------
 Model                              1          2 -1.33802169E-03                            1_GWF-(2,51,51)
 Model                              2          1 -9.23705556E-14       *                    1_GWF-(2,50,52)
 ----------------------------------------------------------------------------------------------------------


 2 CALLS TO NUMERICAL SOLUTION IN TIME STEP 10 STRESS PERIOD 1
 3 TOTAL ITERATIONS
 
    Solving:  Stress period:     1    Time step:    11
 

 SLN_1 OUTER ITERATION SUMMARY
 ----------------------------------------------------------------------------------------------------------
                                OUTER      INNER                    STEP   MAXIMUM CHANGE MODEL-(CELLID) OR
 OUTER ITERATION STEP       ITERATION  ITERATION  MAXIMUM CHANGE SUCCESS             MODEL-PACKAGE-(NUMBER)
 ----------------------------------------------------------------------------------------------------------
 Model                              1          2 -1.60434129E-03                            1_GWF-(2,51,51)
 Model                              2          1 -3.01980663E-14       *                    1_GWF-(2,50,52)
 ----------------------------------------------------------------------------------------------------------


 2 CALLS TO NUMERICAL SOLUTION IN TIME STEP 11 STRESS PERIOD 1
 3 TOTAL ITERATIONS
 
    Solving:  Stress period:     1    Time step:    12
 

 SLN_1 OUTER ITERATION SUMMARY
 ----------------------------------------------------------------------------------------------------------
                                OUTER      INNER                    STEP   MAXIMUM CHANGE MODEL-(CELLID) OR
 OUTER ITERATION STEP       ITERATION  ITERATION  MAXIMUM CHANGE SUCCESS             MODEL-PACKAGE-(NUMBER)
 ----------------------------------------------------------------------------------------------------------
 Model                              1          2 -1.92336157E-03                            1_GWF-(2,51,51)
 Model                              2          1 -8.88178420E-15       *                    1_GWF-(2,50,52)
 ----------------------------------------------------------------------------------------------------------


 2 CALLS TO NUMERICAL SOLUTION IN TIME STEP 12 STRESS PERIOD 1
 3 TOTAL ITERATIONS
 
    Solving:  Stress period:     1    Time step:    13
 

 SLN_1 OUTER ITERATION SUMMARY
 ----------------------------------------------------------------------------------------------------------
                                OUTER      INNER                    STEP   MAXIMUM CHANGE MODEL-(CELLID) OR
 OUTER ITERATION STEP       ITERATION  ITERATION  MAXIMUM CHANGE SUCCESS             MODEL-PACKAGE-(NUMBER)
 ----------------------------------------------------------------------------------------------------------
 Model                              1          2 -2.30537632E-03                            1_GWF-(2,51,51)
 Model                              2          1 -1.77635684E-15       *                    1_GWF-(2,50,52)
 ----------------------------------------------------------------------------------------------------------


 2 CALLS TO NUMERICAL SOLUTION IN TIME STEP 13 STRESS PERIOD 1
 3 TOTAL ITERATIONS
 
    Solving:  Stress period:     1    Time step:    14
 

 SLN_1 OUTER ITERATION SUMMARY
 ----------------------------------------------------------------------------------------------------------
                                OUTER      INNER                    STEP   MAXIMUM CHANGE MODEL-(CELLID) OR
 OUTER ITERATION STEP       ITERATION  ITERATION  MAXIMUM CHANGE SUCCESS             MODEL-PACKAGE-(NUMBER)
 ----------------------------------------------------------------------------------------------------------
 Model                              1          2 -2.76263080E-03                            1_GWF-(2,51,51)
 Model                              2          1 -5.55111512E-16       *                    1_GWF-(MAW_1-1)
 ----------------------------------------------------------------------------------------------------------


 2 CALLS TO NUMERICAL SOLUTION IN TIME STEP 14 STRESS PERIOD 1
 3 TOTAL ITERATIONS
 
    Solving:  Stress period:     1    Time step:    15
 

 SLN_1 OUTER ITERATION SUMMARY
 ----------------------------------------------------------------------------------------------------------
                                OUTER      INNER                    STEP   MAXIMUM CHANGE MODEL-(CELLID) OR
 OUTER ITERATION STEP       ITERATION  ITERATION  MAXIMUM CHANGE SUCCESS             MODEL-PACKAGE-(NUMBER)
 ----------------------------------------------------------------------------------------------------------
 Model                              1          2 -3.30966552E-03                            1_GWF-(2,51,51)
 Model                              2          1 -1.11022302E-16       *                    1_GWF-(MAW_1-1)
 ----------------------------------------------------------------------------------------------------------


 2 CALLS TO NUMERICAL SOLUTION IN TIME STEP 15 STRESS PERIOD 1
 3 TOTAL ITERATIONS
 
    Solving:  Stress period:     1    Time step:    16
 

 SLN_1 OUTER ITERATION SUMMARY
 ----------------------------------------------------------------------------------------------------------
                                OUTER      INNER                    STEP   MAXIMUM CHANGE MODEL-(CELLID) OR
 OUTER ITERATION STEP       ITERATION  ITERATION  MAXIMUM CHANGE SUCCESS             MODEL-PACKAGE-(NUMBER)
 ----------------------------------------------------------------------------------------------------------
 Model                              1          2 -3.96370906E-03                            1_GWF-(2,51,51)
 Model                              2          1       0.0000000       *                                   
 ----------------------------------------------------------------------------------------------------------


 2 CALLS TO NUMERICAL SOLUTION IN TIME STEP 16 STRESS PERIOD 1
 3 TOTAL ITERATIONS
 
    Solving:  Stress period:     1    Time step:    17
 

 SLN_1 OUTER ITERATION SUMMARY
 ----------------------------------------------------------------------------------------------------------
                                OUTER      INNER                    STEP   MAXIMUM CHANGE MODEL-(CELLID) OR
 OUTER ITERATION STEP       ITERATION  ITERATION  MAXIMUM CHANGE SUCCESS             MODEL-PACKAGE-(NUMBER)
 ----------------------------------------------------------------------------------------------------------
 Model                              1          3 -4.74512110E-03                            1_GWF-(2,51,51)
 Model                              2          1       0.0000000       *                                   
 ----------------------------------------------------------------------------------------------------------


 2 CALLS TO NUMERICAL SOLUTION IN TIME STEP 17 STRESS PERIOD 1
 4 TOTAL ITERATIONS
 
    Solving:  Stress period:     1    Time step:    18
 

 SLN_1 OUTER ITERATION SUMMARY
 ----------------------------------------------------------------------------------------------------------
                                OUTER      INNER                    STEP   MAXIMUM CHANGE MODEL-(CELLID) OR
 OUTER ITERATION STEP       ITERATION  ITERATION  MAXIMUM CHANGE SUCCESS             MODEL-PACKAGE-(NUMBER)
 ----------------------------------------------------------------------------------------------------------
 Model                              1          3 -5.67788416E-03                            1_GWF-(2,51,51)
 Model                              2          1       0.0000000       *                                   
 ----------------------------------------------------------------------------------------------------------


 2 CALLS TO NUMERICAL SOLUTION IN TIME STEP 18 STRESS PERIOD 1
 4 TOTAL ITERATIONS
 
    Solving:  Stress period:     1    Time step:    19
 

 SLN_1 OUTER ITERATION SUMMARY
 ----------------------------------------------------------------------------------------------------------
                                OUTER      INNER                    STEP   MAXIMUM CHANGE MODEL-(CELLID) OR
 OUTER ITERATION STEP       ITERATION  ITERATION  MAXIMUM CHANGE SUCCESS             MODEL-PACKAGE-(NUMBER)
 ----------------------------------------------------------------------------------------------------------
 Model                              1          3 -6.79013735E-03                            1_GWF-(2,51,51)
 Model                              2          1       0.0000000       *                                   
 ----------------------------------------------------------------------------------------------------------


 2 CALLS TO NUMERICAL SOLUTION IN TIME STEP 19 STRESS PERIOD 1
 4 TOTAL ITERATIONS
 
    Solving:  Stress period:     1    Time step:    20
 

 SLN_1 OUTER ITERATION SUMMARY
 ----------------------------------------------------------------------------------------------------------
                                OUTER      INNER                    STEP   MAXIMUM CHANGE MODEL-(CELLID) OR
 OUTER ITERATION STEP       ITERATION  ITERATION  MAXIMUM CHANGE SUCCESS             MODEL-PACKAGE-(NUMBER)
 ----------------------------------------------------------------------------------------------------------
 Model                              1          3 -8.11473768E-03                            1_GWF-(2,51,51)
 Model                              2          1       0.0000000       *                                   
 ----------------------------------------------------------------------------------------------------------


 2 CALLS TO NUMERICAL SOLUTION IN TIME STEP 20 STRESS PERIOD 1
 4 TOTAL ITERATIONS
 
    Solving:  Stress period:     1    Time step:    21
 

 SLN_1 OUTER ITERATION SUMMARY
 ----------------------------------------------------------------------------------------------------------
                                OUTER      INNER                    STEP   MAXIMUM CHANGE MODEL-(CELLID) OR
 OUTER ITERATION STEP       ITERATION  ITERATION  MAXIMUM CHANGE SUCCESS             MODEL-PACKAGE-(NUMBER)
 ----------------------------------------------------------------------------------------------------------
 Model                              1          3 -9.68982305E-03                            1_GWF-(2,51,51)
 Model                              2          1       0.0000000       *                                   
 ----------------------------------------------------------------------------------------------------------


 2 CALLS TO NUMERICAL SOLUTION IN TIME STEP 21 STRESS PERIOD 1
 4 TOTAL ITERATIONS
 
    Solving:  Stress period:     1    Time step:    22
 

 SLN_1 OUTER ITERATION SUMMARY
 ----------------------------------------------------------------------------------------------------------
                                OUTER      INNER                    STEP   MAXIMUM CHANGE MODEL-(CELLID) OR
 OUTER ITERATION STEP       ITERATION  ITERATION  MAXIMUM CHANGE SUCCESS             MODEL-PACKAGE-(NUMBER)
 ----------------------------------------------------------------------------------------------------------
 Model                              1          3 -1.15593343E-02                            1_GWF-(2,51,51)
 Model                              2          1       0.0000000       *                                   
 ----------------------------------------------------------------------------------------------------------


 2 CALLS TO NUMERICAL SOLUTION IN TIME STEP 22 STRESS PERIOD 1
 4 TOTAL ITERATIONS
 
    Solving:  Stress period:     1    Time step:    23
 

 SLN_1 OUTER ITERATION SUMMARY
 ----------------------------------------------------------------------------------------------------------
                                OUTER      INNER                    STEP   MAXIMUM CHANGE MODEL-(CELLID) OR
 OUTER ITERATION STEP       ITERATION  ITERATION  MAXIMUM CHANGE SUCCESS             MODEL-PACKAGE-(NUMBER)
 ----------------------------------------------------------------------------------------------------------
 Model                              1          3 -1.37734303E-02                            1_GWF-(2,51,51)
 Model                              2          1       0.0000000       *                                   
 ----------------------------------------------------------------------------------------------------------


 2 CALLS TO NUMERICAL SOLUTION IN TIME STEP 23 STRESS PERIOD 1
 4 TOTAL ITERATIONS
 
    Solving:  Stress period:     1    Time step:    24
 

 SLN_1 OUTER ITERATION SUMMARY
 ----------------------------------------------------------------------------------------------------------
                                OUTER      INNER                    STEP   MAXIMUM CHANGE MODEL-(CELLID) OR
 OUTER ITERATION STEP       ITERATION  ITERATION  MAXIMUM CHANGE SUCCESS             MODEL-PACKAGE-(NUMBER)
 ----------------------------------------------------------------------------------------------------------
 Model                              1          3 -1.63886976E-02                            1_GWF-(2,51,51)
 Model                              2          1 -1.11022302E-16       *                    1_GWF-(MAW_1-1)
 ----------------------------------------------------------------------------------------------------------


 2 CALLS TO NUMERICAL SOLUTION IN TIME STEP 24 STRESS PERIOD 1
 4 TOTAL ITERATIONS
 
    Solving:  Stress period:     1    Time step:    25
 

 SLN_1 OUTER ITERATION SUMMARY
 ----------------------------------------------------------------------------------------------------------
                                OUTER      INNER                    STEP   MAXIMUM CHANGE MODEL-(CELLID) OR
 OUTER ITERATION STEP       ITERATION  ITERATION  MAXIMUM CHANGE SUCCESS             MODEL-PACKAGE-(NUMBER)
 ----------------------------------------------------------------------------------------------------------
 Model                              1          3 -1.94680140E-02                            1_GWF-(2,51,51)
 Model                              2          1 -7.77156117E-16       *                    1_GWF-(MAW_1-1)
 ----------------------------------------------------------------------------------------------------------


 2 CALLS TO NUMERICAL SOLUTION IN TIME STEP 25 STRESS PERIOD 1
 4 TOTAL ITERATIONS
 
    Solving:  Stress period:     1    Time step:    26
 

 SLN_1 OUTER ITERATION SUMMARY
 ----------------------------------------------------------------------------------------------------------
                                OUTER      INNER                    STEP   MAXIMUM CHANGE MODEL-(CELLID) OR
 OUTER ITERATION STEP       ITERATION  ITERATION  MAXIMUM CHANGE SUCCESS             MODEL-PACKAGE-(NUMBER)
 ----------------------------------------------------------------------------------------------------------
 Model                              1          3 -2.30798704E-02                            1_GWF-(2,51,51)
 Model                              2          1 -7.54951657E-15       *                    1_GWF-(MAW_1-1)
 ----------------------------------------------------------------------------------------------------------


 2 CALLS TO NUMERICAL SOLUTION IN TIME STEP 26 STRESS PERIOD 1
 4 TOTAL ITERATIONS
 
    Solving:  Stress period:     1    Time step:    27
 

 SLN_1 OUTER ITERATION SUMMARY
 ----------------------------------------------------------------------------------------------------------
                                OUTER      INNER                    STEP   MAXIMUM CHANGE MODEL-(CELLID) OR
 OUTER ITERATION STEP       ITERATION  ITERATION  MAXIMUM CHANGE SUCCESS             MODEL-PACKAGE-(NUMBER)
 ----------------------------------------------------------------------------------------------------------
 Model                              1          3 -2.72968891E-02                            1_GWF-(2,51,51)
 Model                              2          1 -7.33857419E-14       *                    1_GWF-(MAW_1-1)
 ----------------------------------------------------------------------------------------------------------


 2 CALLS TO NUMERICAL SOLUTION IN TIME STEP 27 STRESS PERIOD 1
 4 TOTAL ITERATIONS
 
    Solving:  Stress period:     1    Time step:    28
 

 SLN_1 OUTER ITERATION SUMMARY
 ----------------------------------------------------------------------------------------------------------
                                OUTER      INNER                    STEP   MAXIMUM CHANGE MODEL-(CELLID) OR
 OUTER ITERATION STEP       ITERATION  ITERATION  MAXIMUM CHANGE SUCCESS             MODEL-PACKAGE-(NUMBER)
 ----------------------------------------------------------------------------------------------------------
 Model                              1          3 -3.21932022E-02                            1_GWF-(2,51,51)
 Model                              2          1 -6.36379838E-13       *                    1_GWF-(MAW_1-1)
 ----------------------------------------------------------------------------------------------------------


 2 CALLS TO NUMERICAL SOLUTION IN TIME STEP 28 STRESS PERIOD 1
 4 TOTAL ITERATIONS
 
    Solving:  Stress period:     1    Time step:    29
 

 SLN_1 OUTER ITERATION SUMMARY
 ----------------------------------------------------------------------------------------------------------
                                OUTER      INNER                    STEP   MAXIMUM CHANGE MODEL-(CELLID) OR
 OUTER ITERATION STEP       ITERATION  ITERATION  MAXIMUM CHANGE SUCCESS             MODEL-PACKAGE-(NUMBER)
 ----------------------------------------------------------------------------------------------------------
 Model                              1          3 -3.78402785E-02                            1_GWF-(2,51,51)
 Model                              2          1 -3.51652041E-12       *                    1_GWF-(MAW_1-1)
 ----------------------------------------------------------------------------------------------------------


 2 CALLS TO NUMERICAL SOLUTION IN TIME STEP 29 STRESS PERIOD 1
 4 TOTAL ITERATIONS
 
    Solving:  Stress period:     1    Time step:    30
 

 SLN_1 OUTER ITERATION SUMMARY
 ----------------------------------------------------------------------------------------------------------
                                OUTER      INNER                    STEP   MAXIMUM CHANGE MODEL-(CELLID) OR
 OUTER ITERATION STEP       ITERATION  ITERATION  MAXIMUM CHANGE SUCCESS             MODEL-PACKAGE-(NUMBER)
 ----------------------------------------------------------------------------------------------------------
 Model                              1          3 -4.43007335E-02                            1_GWF-(2,51,51)
 Model                              2          1 -6.36457553E-12       *                    1_GWF-(MAW_1-1)
 ----------------------------------------------------------------------------------------------------------


 2 CALLS TO NUMERICAL SOLUTION IN TIME STEP 30 STRESS PERIOD 1
 4 TOTAL ITERATIONS
 
    Solving:  Stress period:     1    Time step:    31
 

 SLN_1 OUTER ITERATION SUMMARY
 ----------------------------------------------------------------------------------------------------------
                                OUTER      INNER                    STEP   MAXIMUM CHANGE MODEL-(CELLID) OR
 OUTER ITERATION STEP       ITERATION  ITERATION  MAXIMUM CHANGE SUCCESS             MODEL-PACKAGE-(NUMBER)
 ----------------------------------------------------------------------------------------------------------
 Model                              1          3 -5.16196496E-02                            1_GWF-(2,51,51)
 Model                              2          1 -2.65176769E-12       *                    1_GWF-(MAW_1-1)
 ----------------------------------------------------------------------------------------------------------


 2 CALLS TO NUMERICAL SOLUTION IN TIME STEP 31 STRESS PERIOD 1
 4 TOTAL ITERATIONS
 
    Solving:  Stress period:     1    Time step:    32
 

 SLN_1 OUTER ITERATION SUMMARY
 ----------------------------------------------------------------------------------------------------------
                                OUTER      INNER                    STEP   MAXIMUM CHANGE MODEL-(CELLID) OR
 OUTER ITERATION STEP       ITERATION  ITERATION  MAXIMUM CHANGE SUCCESS             MODEL-PACKAGE-(NUMBER)
 ----------------------------------------------------------------------------------------------------------
 Model                              1          3 -5.98130330E-02                            1_GWF-(2,51,51)
 Model                              2          1 -4.18109991E-13       *                    1_GWF-(MAW_1-1)
 ----------------------------------------------------------------------------------------------------------


 2 CALLS TO NUMERICAL SOLUTION IN TIME STEP 32 STRESS PERIOD 1
 4 TOTAL ITERATIONS
 
    Solving:  Stress period:     1    Time step:    33
 

 SLN_1 OUTER ITERATION SUMMARY
 ----------------------------------------------------------------------------------------------------------
                                OUTER      INNER                    STEP   MAXIMUM CHANGE MODEL-(CELLID) OR
 OUTER ITERATION STEP       ITERATION  ITERATION  MAXIMUM CHANGE SUCCESS             MODEL-PACKAGE-(NUMBER)
 ----------------------------------------------------------------------------------------------------------
 Model                              1          3 -6.88533059E-02                            1_GWF-(2,51,51)
 Model                              2          1 -4.81836793E-14       *                    1_GWF-(MAW_1-1)
 ----------------------------------------------------------------------------------------------------------


 2 CALLS TO NUMERICAL SOLUTION IN TIME STEP 33 STRESS PERIOD 1
 4 TOTAL ITERATIONS
 
    Solving:  Stress period:     1    Time step:    34
 

 SLN_1 OUTER ITERATION SUMMARY
 ----------------------------------------------------------------------------------------------------------
                                OUTER      INNER                    STEP   MAXIMUM CHANGE MODEL-(CELLID) OR
 OUTER ITERATION STEP       ITERATION  ITERATION  MAXIMUM CHANGE SUCCESS             MODEL-PACKAGE-(NUMBER)
 ----------------------------------------------------------------------------------------------------------
 Model                              1          4 -7.86522743E-02                            1_GWF-(2,51,51)
 Model                              2          1 -6.10622664E-15       *                    1_GWF-(MAW_1-1)
 ----------------------------------------------------------------------------------------------------------


 2 CALLS TO NUMERICAL SOLUTION IN TIME STEP 34 STRESS PERIOD 1
 5 TOTAL ITERATIONS
 
    Solving:  Stress period:     1    Time step:    35
 

 SLN_1 OUTER ITERATION SUMMARY
 ----------------------------------------------------------------------------------------------------------
                                OUTER      INNER                    STEP   MAXIMUM CHANGE MODEL-(CELLID) OR
 OUTER ITERATION STEP       ITERATION  ITERATION  MAXIMUM CHANGE SUCCESS             MODEL-PACKAGE-(NUMBER)
 ----------------------------------------------------------------------------------------------------------
 Model                              1          4 -8.90429085E-02                            1_GWF-(2,51,51)
 Model                              2          1 -1.77635684E-15       *                    1_GWF-(MAW_1-1)
 ----------------------------------------------------------------------------------------------------------


 2 CALLS TO NUMERICAL SOLUTION IN TIME STEP 35 STRESS PERIOD 1
 5 TOTAL ITERATIONS
 
    Solving:  Stress period:     1    Time step:    36
 

 SLN_1 OUTER ITERATION SUMMARY
 ----------------------------------------------------------------------------------------------------------
                                OUTER      INNER                    STEP   MAXIMUM CHANGE MODEL-(CELLID) OR
 OUTER ITERATION STEP       ITERATION  ITERATION  MAXIMUM CHANGE SUCCESS             MODEL-PACKAGE-(NUMBER)
 ----------------------------------------------------------------------------------------------------------
 Model                              1          4 -9.97625798E-02                            1_GWF-(2,51,51)
 Model                              2          1 -7.66053887E-15       *                    1_GWF-(MAW_1-1)
 ----------------------------------------------------------------------------------------------------------


 2 CALLS TO NUMERICAL SOLUTION IN TIME STEP 36 STRESS PERIOD 1
 5 TOTAL ITERATIONS
 
    Solving:  Stress period:     1    Time step:    37
 

 SLN_1 OUTER ITERATION SUMMARY
 ----------------------------------------------------------------------------------------------------------
                                OUTER      INNER                    STEP   MAXIMUM CHANGE MODEL-(CELLID) OR
 OUTER ITERATION STEP       ITERATION  ITERATION  MAXIMUM CHANGE SUCCESS             MODEL-PACKAGE-(NUMBER)
 ----------------------------------------------------------------------------------------------------------
 Model                              1          4     -0.11044202                            1_GWF-(2,51,51)
 Model                              2          3  2.07916922E-05                            1_GWF-(MAW_1-1)
 Model                              3          2 -4.44018693E-07                            1_GWF-(MAW_1-1)
 Model                              4          2  9.42928313E-09                            1_GWF-(MAW_1-1)
 Model                              5          1 -1.15592758E-10       *                    1_GWF-(MAW_1-1)
 ----------------------------------------------------------------------------------------------------------


 5 CALLS TO NUMERICAL SOLUTION IN TIME STEP 37 STRESS PERIOD 1
 12 TOTAL ITERATIONS
 
    Solving:  Stress period:     1    Time step:    38
 

 SLN_1 OUTER ITERATION SUMMARY
 ----------------------------------------------------------------------------------------------------------
                                OUTER      INNER                    STEP   MAXIMUM CHANGE MODEL-(CELLID) OR
 OUTER ITERATION STEP       ITERATION  ITERATION  MAXIMUM CHANGE SUCCESS             MODEL-PACKAGE-(NUMBER)
 ----------------------------------------------------------------------------------------------------------
 Model                              1          4     -0.12060546                            1_GWF-(2,51,51)
 Model                              2          3  4.28153726E-04                            1_GWF-(MAW_1-1)
 Model                              3          3 -4.10503792E-05                            1_GWF-(MAW_1-1)
 Model                              4          3  3.85117975E-06                            1_GWF-(MAW_1-1)
 Model                              5          2 -3.62065258E-07                            1_GWF-(MAW_1-1)
 Model                              6          2  3.40315714E-08                            1_GWF-(MAW_1-1)
 Model                              7          2 -3.18937204E-09                            1_GWF-(MAW_1-1)
 Model                              8          1  2.19608332E-10       *                    1_GWF-(MAW_1-1)
 ----------------------------------------------------------------------------------------------------------


 8 CALLS TO NUMERICAL SOLUTION IN TIME STEP 38 STRESS PERIOD 1
 20 TOTAL ITERATIONS
 
    Solving:  Stress period:     1    Time step:    39
 

 SLN_1 OUTER ITERATION SUMMARY
 ----------------------------------------------------------------------------------------------------------
                                OUTER      INNER                    STEP   MAXIMUM CHANGE MODEL-(CELLID) OR
 OUTER ITERATION STEP       ITERATION  ITERATION  MAXIMUM CHANGE SUCCESS             MODEL-PACKAGE-(NUMBER)
 ----------------------------------------------------------------------------------------------------------
 Model                              1          4     -0.12968190                            1_GWF-(2,51,51)
 Model                              2          3  1.02467416E-03                            1_GWF-(MAW_1-1)
 Model                              3          3 -1.71549371E-04                            1_GWF-(MAW_1-1)
 Model                              4          3  2.79667123E-05                            1_GWF-(MAW_1-1)
 Model                              5          3 -4.57994910E-06                            1_GWF-(MAW_1-1)
 Model                              6          2  7.49480139E-07                            1_GWF-(MAW_1-1)
 Model                              7          2 -1.22662278E-07                            1_GWF-(MAW_1-1)
 Model                              8          2  2.00732074E-08                            1_GWF-(MAW_1-1)
 Model                              9          2 -3.27527860E-09                            1_GWF-(MAW_1-1)
 Model                             10          1  4.79884021E-10       *                    1_GWF-(MAW_1-1)
 ----------------------------------------------------------------------------------------------------------


 10 CALLS TO NUMERICAL SOLUTION IN TIME STEP 39 STRESS PERIOD 1
 25 TOTAL ITERATIONS
 
    Solving:  Stress period:     1    Time step:    40
 

 SLN_1 OUTER ITERATION SUMMARY
 ----------------------------------------------------------------------------------------------------------
                                OUTER      INNER                    STEP   MAXIMUM CHANGE MODEL-(CELLID) OR
 OUTER ITERATION STEP       ITERATION  ITERATION  MAXIMUM CHANGE SUCCESS             MODEL-PACKAGE-(NUMBER)
 ----------------------------------------------------------------------------------------------------------
 Model                              1          4     -0.13705943                            1_GWF-(2,51,51)
 Model                              2          4  1.65265020E-03                            1_GWF-(MAW_1-1)
 Model                              3          3 -3.88229758E-04                            1_GWF-(MAW_1-1)
 Model                              4          3  8.87444973E-05                            1_GWF-(MAW_1-1)
 Model                              5          3 -2.04189414E-05                            1_GWF-(MAW_1-1)
 Model                              6          3  4.69114660E-06                            1_GWF-(MAW_1-1)
 Model                              7          2 -1.07813605E-06                            1_GWF-(MAW_1-1)
 Model                              8          2  2.47761443E-07                            1_GWF-(MAW_1-1)
 Model                              9          2 -5.69372952E-08                            1_GWF-(MAW_1-1)
 Model                             10          2  1.30818721E-08                            1_GWF-(MAW_1-1)
 Model                             11          2 -2.99484848E-09                            1_GWF-(MAW_1-1)
 Model                             12          1  6.40433151E-10       *                    1_GWF-(MAW_1-1)
 ----------------------------------------------------------------------------------------------------------


 12 CALLS TO NUMERICAL SOLUTION IN TIME STEP 40 STRESS PERIOD 1
 31 TOTAL ITERATIONS
 
    Solving:  Stress period:     1    Time step:    41
 

 SLN_1 OUTER ITERATION SUMMARY
 ----------------------------------------------------------------------------------------------------------
                                OUTER      INNER                    STEP   MAXIMUM CHANGE MODEL-(CELLID) OR
 OUTER ITERATION STEP       ITERATION  ITERATION  MAXIMUM CHANGE SUCCESS             MODEL-PACKAGE-(NUMBER)
 ----------------------------------------------------------------------------------------------------------
 Model                              1          4     -0.14215673                            1_GWF-(2,51,51)
 Model                              2          4  2.27504196E-03                            1_GWF-(MAW_1-1)
 Model                              3          3 -6.77873544E-04                            1_GWF-(MAW_1-1)
 Model                              4          3  1.96694896E-04                            1_GWF-(MAW_1-1)
 Model                              5          3 -5.75360746E-05                            1_GWF-(MAW_1-1)
 Model                              6          3  1.67910322E-05                            1_GWF-(MAW_1-1)
 Model                              7          3 -4.90354908E-06                            1_GWF-(MAW_1-1)
 Model                              8          3  1.43171747E-06                            1_GWF-(MAW_1-1)
 Model                              9          2 -4.18050989E-07                            1_GWF-(MAW_1-1)
 Model                             10          2  1.22065462E-07                            1_GWF-(MAW_1-1)
 Model                             11          2 -3.56406339E-08                            1_GWF-(MAW_1-1)
 Model                             12          2  1.04029200E-08                            1_GWF-(MAW_1-1)
 Model                             13          2 -3.02552500E-09                            1_GWF-(MAW_1-1)
 Model                             14          1  8.43445702E-10       *                    1_GWF-(MAW_1-1)
 ----------------------------------------------------------------------------------------------------------


 14 CALLS TO NUMERICAL SOLUTION IN TIME STEP 41 STRESS PERIOD 1
 37 TOTAL ITERATIONS
 
    Solving:  Stress period:     1    Time step:    42
 

 SLN_1 OUTER ITERATION SUMMARY
 ----------------------------------------------------------------------------------------------------------
                                OUTER      INNER                    STEP   MAXIMUM CHANGE MODEL-(CELLID) OR
 OUTER ITERATION STEP       ITERATION  ITERATION  MAXIMUM CHANGE SUCCESS             MODEL-PACKAGE-(NUMBER)
 ----------------------------------------------------------------------------------------------------------
 Model                              1          4     -0.14451406                            1_GWF-(2,51,51)
 Model                              2          4  2.84998932E-03                            1_GWF-(MAW_1-1)
 Model                              3          4 -1.01516873E-03                            1_GWF-(MAW_1-1)
 Model                              4          3  3.52693554E-04                            1_GWF-(MAW_1-1)
 Model                              5          3 -1.23651761E-04                            1_GWF-(MAW_1-1)
 Model                              6          3  4.32159176E-05                            1_GWF-(MAW_1-1)
 Model                              7          3 -1.51204612E-05                            1_GWF-(MAW_1-1)
 Model                              8          3  5.28834138E-06                            1_GWF-(MAW_1-1)
 Model                              9          3 -1.84983214E-06                            1_GWF-(MAW_1-1)
 Model                             10          3  6.47030426E-07                            1_GWF-(MAW_1-1)
 Model                             11          2 -2.26320525E-07                            1_GWF-(MAW_1-1)
 Model                             12          2  7.91622538E-08                            1_GWF-(MAW_1-1)
 Model                             13          2 -2.76879670E-08                            1_GWF-(MAW_1-1)
 Model                             14          2  9.68047909E-09                            1_GWF-(MAW_1-1)
 Model                             15          2 -3.37466238E-09                            1_GWF-(MAW_1-1)
 Model                             16          2  1.14908044E-09                            1_GWF-(MAW_1-1)
 Model                             17          1 -3.17053550E-10       *                    1_GWF-(MAW_1-1)
 ----------------------------------------------------------------------------------------------------------


 17 CALLS TO NUMERICAL SOLUTION IN TIME STEP 42 STRESS PERIOD 1
 46 TOTAL ITERATIONS
 
    Solving:  Stress period:     1    Time step:    43
 

 SLN_1 OUTER ITERATION SUMMARY
 ----------------------------------------------------------------------------------------------------------
                                OUTER      INNER                    STEP   MAXIMUM CHANGE MODEL-(CELLID) OR
 OUTER ITERATION STEP       ITERATION  ITERATION  MAXIMUM CHANGE SUCCESS             MODEL-PACKAGE-(NUMBER)
 ----------------------------------------------------------------------------------------------------------
 Model                              1          5     -0.14389299                            1_GWF-(2,51,51)
 Model                              2          4  3.33732623E-03                            1_GWF-(MAW_1-1)
 Model                              3          4 -1.36621778E-03                            1_GWF-(MAW_1-1)
 Model                              4          4  5.46617449E-04                            1_GWF-(MAW_1-1)
 Model                              5          3 -2.20807060E-04                            1_GWF-(MAW_1-1)
 Model                              6          3  8.88568277E-05                            1_GWF-(MAW_1-1)
 Model                              7          3 -3.58127969E-05                            1_GWF-(MAW_1-1)
 Model                              8          3  1.44250264E-05                            1_GWF-(MAW_1-1)
 Model                              9          3 -5.81170413E-06                            1_GWF-(MAW_1-1)
 Model                             10          3  2.34124401E-06                            1_GWF-(MAW_1-1)
 Model                             11          3 -9.43207951E-07                            1_GWF-(MAW_1-1)
 Model                             12          2  3.79980258E-07                            1_GWF-(MAW_1-1)
 Model                             13          2 -1.53079431E-07                            1_GWF-(MAW_1-1)
 Model                             14          2  6.16690495E-08                            1_GWF-(MAW_1-1)
 Model                             15          2 -2.48422108E-08                            1_GWF-(MAW_1-1)
 Model                             16          2  1.00035465E-08                            1_GWF-(MAW_1-1)
 Model                             17          2 -4.01988637E-09                            1_GWF-(MAW_1-1)
 Model                             18          2  1.59520286E-09                            1_GWF-(MAW_1-1)
 Model                             19          1 -5.83442628E-10       *                    1_GWF-(MAW_1-1)
 ----------------------------------------------------------------------------------------------------------


 19 CALLS TO NUMERICAL SOLUTION IN TIME STEP 43 STRESS PERIOD 1
 53 TOTAL ITERATIONS
 
    Solving:  Stress period:     1    Time step:    44
 

 SLN_1 OUTER ITERATION SUMMARY
 ----------------------------------------------------------------------------------------------------------
                                OUTER      INNER                    STEP   MAXIMUM CHANGE MODEL-(CELLID) OR
 OUTER ITERATION STEP       ITERATION  ITERATION  MAXIMUM CHANGE SUCCESS             MODEL-PACKAGE-(NUMBER)
 ----------------------------------------------------------------------------------------------------------
 Model                              1          5     -0.14035673                            1_GWF-(2,51,51)
 Model                              2          4  3.70625646E-03                            1_GWF-(MAW_1-1)
 Model                              3          4 -1.69514829E-03                            1_GWF-(MAW_1-1)
 Model                              4          4  7.59463372E-04                            1_GWF-(MAW_1-1)
 Model                              5          4 -3.43557130E-04                            1_GWF-(MAW_1-1)
 Model                              6          4  1.54750256E-04                            1_GWF-(MAW_1-1)
 Model                              7          3 -6.98407384E-05                            1_GWF-(MAW_1-1)
 Model                              8          3  3.14924469E-05                            1_GWF-(MAW_1-1)
 Model                              9          3 -1.42061234E-05                            1_GWF-(MAW_1-1)
 Model                             10          3  6.40718725E-06                            1_GWF-(MAW_1-1)
 Model                             11          3 -2.88997538E-06                            1_GWF-(MAW_1-1)
 Model                             12          3  1.30348226E-06                            1_GWF-(MAW_1-1)
 Model                             13          3 -5.87926673E-07                            1_GWF-(MAW_1-1)
 Model                             14          2  2.65178186E-07                            1_GWF-(MAW_1-1)
 Model                             15          2 -1.19605965E-07                            1_GWF-(MAW_1-1)
 Model                             16          2  5.39463087E-08                            1_GWF-(MAW_1-1)
 Model                             17          2 -2.43299813E-08                            1_GWF-(MAW_1-1)
 Model                             18          2  1.09694908E-08                            1_GWF-(MAW_1-1)
 Model                             19          2 -4.93885766E-09                            1_GWF-(MAW_1-1)
 Model                             20          2  2.20898855E-09                            1_GWF-(MAW_1-1)
 Model                             21          1 -9.55567514E-10       *                    1_GWF-(MAW_1-1)
 ----------------------------------------------------------------------------------------------------------


 21 CALLS TO NUMERICAL SOLUTION IN TIME STEP 44 STRESS PERIOD 1
 61 TOTAL ITERATIONS
 
    Solving:  Stress period:     1    Time step:    45
 

 SLN_1 OUTER ITERATION SUMMARY
 ----------------------------------------------------------------------------------------------------------
                                OUTER      INNER                    STEP   MAXIMUM CHANGE MODEL-(CELLID) OR
 OUTER ITERATION STEP       ITERATION  ITERATION  MAXIMUM CHANGE SUCCESS             MODEL-PACKAGE-(NUMBER)
 ----------------------------------------------------------------------------------------------------------
 Model                              1          5     -0.13430065                            1_GWF-(2,51,51)
 Model                              2          4  3.94206405E-03                            1_GWF-(MAW_1-1)
 Model                              3          4 -1.97211104E-03                            1_GWF-(MAW_1-1)
 Model                              4          4  9.68687860E-04                            1_GWF-(MAW_1-1)
 Model                              5          4 -4.80285532E-04                            1_GWF-(MAW_1-1)
 Model                              6          4  2.37050300E-04                            1_GWF-(MAW_1-1)
 Model                              7          4 -1.17264250E-04                            1_GWF-(MAW_1-1)
 Model                              8          3  5.79437078E-05                            1_GWF-(MAW_1-1)
 Model                              9          3 -2.86475110E-05                            1_GWF-(MAW_1-1)
 Model                             10          3  1.41595356E-05                            1_GWF-(MAW_1-1)
 Model                             11          3 -6.99954368E-06                            1_GWF-(MAW_1-1)
 Model                             12          3  3.45988356E-06                            1_GWF-(MAW_1-1)
 Model                             13          3 -1.71028131E-06                            1_GWF-(MAW_1-1)
 Model                             14          3  8.45408328E-07                            1_GWF-(MAW_1-1)
 Model                             15          3 -4.17896669E-07                            1_GWF-(MAW_1-1)
 Model                             16          2  2.06570945E-07                            1_GWF-(MAW_1-1)
 Model                             17          2 -1.02110175E-07                            1_GWF-(MAW_1-1)
 Model                             18          2  5.04733640E-08                            1_GWF-(MAW_1-1)
 Model                             19          2 -2.49475748E-08                            1_GWF-(MAW_1-1)
 Model                             20          2  1.23277795E-08                            1_GWF-(MAW_1-1)
 Model                             21          2 -6.08605816E-09                            1_GWF-(MAW_1-1)
 Model                             22          2  2.99379327E-09                            1_GWF-(MAW_1-1)
 Model                             23          2 -1.45124956E-09                            1_GWF-(MAW_1-1)
 Model                             24          1  6.59715393E-10       *                    1_GWF-(MAW_1-1)
 ----------------------------------------------------------------------------------------------------------


 24 CALLS TO NUMERICAL SOLUTION IN TIME STEP 45 STRESS PERIOD 1
 70 TOTAL ITERATIONS
 
    Solving:  Stress period:     1    Time step:    46
 

 SLN_1 OUTER ITERATION SUMMARY
 ----------------------------------------------------------------------------------------------------------
                                OUTER      INNER                    STEP   MAXIMUM CHANGE MODEL-(CELLID) OR
 OUTER ITERATION STEP       ITERATION  ITERATION  MAXIMUM CHANGE SUCCESS             MODEL-PACKAGE-(NUMBER)
 ----------------------------------------------------------------------------------------------------------
 Model                              1          5     -0.12641037                            1_GWF-(2,51,51)
 Model                              2          4  4.04943931E-03                            1_GWF-(MAW_1-1)
 Model                              3          4 -2.17995180E-03                            1_GWF-(MAW_1-1)
 Model                              4          4  1.15487291E-03                            1_GWF-(MAW_1-1)
 Model                              5          4 -6.17227759E-04                            1_GWF-(MAW_1-1)
 Model                              6          4  3.28361954E-04                            1_GWF-(MAW_1-1)
 Model                              7          4 -1.75120627E-04                            1_GWF-(MAW_1-1)
 Model                              8          4  9.32718352E-05                            1_GWF-(MAW_1-1)
 Model                              9          4 -4.97128765E-05                            1_GWF-(MAW_1-1)
 Model                             10          3  2.64865185E-05                            1_GWF-(MAW_1-1)
 Model                             11          3 -1.41145635E-05                            1_GWF-(MAW_1-1)
 Model                             12          3  7.52079760E-06                            1_GWF-(MAW_1-1)
 Model                             13          3 -4.00760521E-06                            1_GWF-(MAW_1-1)
 Model                             14          3  2.13546699E-06                            1_GWF-(MAW_1-1)
 Model                             15          3 -1.13790959E-06                            1_GWF-(MAW_1-1)
 Model                             16          3  6.06343742E-07                            1_GWF-(MAW_1-1)
 Model                             17          3 -3.23096229E-07                            1_GWF-(MAW_1-1)
 Model                             18          2  1.72164400E-07                            1_GWF-(MAW_1-1)
 Model                             19          2 -9.17389342E-08                            1_GWF-(MAW_1-1)
 Model                             20          2  4.88829501E-08                            1_GWF-(MAW_1-1)
 Model                             21          2 -2.60457556E-08                            1_GWF-(MAW_1-1)
 Model                             22          2  1.38748734E-08                            1_GWF-(MAW_1-1)
 Model                             23          2 -7.38649314E-09                            1_GWF-(MAW_1-1)
 Model                             24          2  3.92402638E-09                            1_GWF-(MAW_1-1)
 Model                             25          2 -2.06958028E-09                            1_GWF-(MAW_1-1)
 Model                             26          2  1.06376657E-09                            1_GWF-(MAW_1-1)
 Model                             27          1 -4.93230290E-10       *                    1_GWF-(MAW_1-1)
 ----------------------------------------------------------------------------------------------------------


 27 CALLS TO NUMERICAL SOLUTION IN TIME STEP 46 STRESS PERIOD 1
 80 TOTAL ITERATIONS
 
    Solving:  Stress period:     1    Time step:    47
 

 SLN_1 OUTER ITERATION SUMMARY
 ----------------------------------------------------------------------------------------------------------
                                OUTER      INNER                    STEP   MAXIMUM CHANGE MODEL-(CELLID) OR
 OUTER ITERATION STEP       ITERATION  ITERATION  MAXIMUM CHANGE SUCCESS             MODEL-PACKAGE-(NUMBER)
 ----------------------------------------------------------------------------------------------------------
 Model                              1          5     -0.11754560                            1_GWF-(2,51,51)
 Model                              2          5  4.05081499E-03                            1_GWF-(MAW_1-1)
 Model                              3          4 -2.31701673E-03                            1_GWF-(MAW_1-1)
 Model                              4          4  1.30697472E-03                            1_GWF-(MAW_1-1)
 Model                              5          4 -7.43240842E-04                            1_GWF-(MAW_1-1)
 Model                              6          4  4.20751212E-04                            1_GWF-(MAW_1-1)
 Model                              7          4 -2.38806576E-04                            1_GWF-(MAW_1-1)
 Model                              8          4  1.35341961E-04                            1_GWF-(MAW_1-1)
 Model                              9          4 -7.67678894E-05                            1_GWF-(MAW_1-1)
 Model                             10          4  4.35233580E-05                            1_GWF-(MAW_1-1)
 Model                             11          4 -2.46820466E-05                            1_GWF-(MAW_1-1)
 Model                             12          3  1.39950421E-05                            1_GWF-(MAW_1-1)
 Model                             13          3 -7.93605257E-06                            1_GWF-(MAW_1-1)
 Model                             14          3  4.50001252E-06                            1_GWF-(MAW_1-1)
 Model                             15          3 -2.55173102E-06                            1_GWF-(MAW_1-1)
 Model                             16          3  1.44693578E-06                            1_GWF-(MAW_1-1)
 Model                             17          3 -8.20478968E-07                            1_GWF-(MAW_1-1)
 Model                             18          3  4.65246805E-07                            1_GWF-(MAW_1-1)
 Model                             19          3 -2.63815550E-07                            1_GWF-(MAW_1-1)
 Model                             20          3  1.49594654E-07                            1_GWF-(MAW_1-1)
 Model                             21          2 -8.48262427E-08                            1_GWF-(MAW_1-1)
 Model                             22          2  4.80992034E-08                            1_GWF-(MAW_1-1)
 Model                             23          2 -2.72724692E-08                            1_GWF-(MAW_1-1)
 Model                             24          2  1.54611313E-08                            1_GWF-(MAW_1-1)
 Model                             25          2 -8.76094908E-09                            1_GWF-(MAW_1-1)
 Model                             26          2  4.95766017E-09                            1_GWF-(MAW_1-1)
 Model                             27          2 -2.79436052E-09                            1_GWF-(MAW_1-1)
 Model                             28          2  1.55584329E-09                            1_GWF-(MAW_1-1)
 Model                             29          1 -8.31738733E-10       *                    1_GWF-(MAW_1-1)
 ----------------------------------------------------------------------------------------------------------


 29 CALLS TO NUMERICAL SOLUTION IN TIME STEP 47 STRESS PERIOD 1
 90 TOTAL ITERATIONS
 
    Solving:  Stress period:     1    Time step:    48
 

 SLN_1 OUTER ITERATION SUMMARY
 ----------------------------------------------------------------------------------------------------------
                                OUTER      INNER                    STEP   MAXIMUM CHANGE MODEL-(CELLID) OR
 OUTER ITERATION STEP       ITERATION  ITERATION  MAXIMUM CHANGE SUCCESS             MODEL-PACKAGE-(NUMBER)
 ----------------------------------------------------------------------------------------------------------
 Model                              1          5     -0.10857662                            1_GWF-(2,51,51)
 Model                              2          5  3.97995549E-03                            1_GWF-(MAW_1-1)
 Model                              3          5 -2.39509073E-03                            1_GWF-(MAW_1-1)
 Model                              4          4  1.42405587E-03                            1_GWF-(MAW_1-1)
 Model                              5          4 -8.52981093E-04                            1_GWF-(MAW_1-1)
 Model                              6          4  5.08703725E-04                            1_GWF-(MAW_1-1)
 Model                              7          4 -3.04177910E-04                            1_GWF-(MAW_1-1)
 Model                              8          4  1.81599537E-04                            1_GWF-(MAW_1-1)
 Model                              9          4 -1.08519236E-04                            1_GWF-(MAW_1-1)
 Model                             10          4  6.48122795E-05                            1_GWF-(MAW_1-1)
 Model                             11          4 -3.87215067E-05                            1_GWF-(MAW_1-1)
 Model                             12          4  2.31292211E-05                            1_GWF-(MAW_1-1)
 Model                             13          3 -1.38172392E-05                            1_GWF-(MAW_1-1)
 Model                             14          3  8.25373996E-06                            1_GWF-(MAW_1-1)
 Model                             15          3 -4.93058745E-06                            1_GWF-(MAW_1-1)
 Model                             16          3  2.94534090E-06                            1_GWF-(MAW_1-1)
 Model                             17          3 -1.75945848E-06                            1_GWF-(MAW_1-1)
 Model                             18          3  1.05103830E-06                            1_GWF-(MAW_1-1)
 Model                             19          3 -6.27856455E-07                            1_GWF-(MAW_1-1)
 Model                             20          3  3.75059948E-07                            1_GWF-(MAW_1-1)
 Model                             21          3 -2.24048265E-07                            1_GWF-(MAW_1-1)
 Model                             22          3  1.33838556E-07                            1_GWF-(MAW_1-1)
 Model                             23          2 -7.99501158E-08                            1_GWF-(MAW_1-1)
 Model                             24          2  4.77584972E-08                            1_GWF-(MAW_1-1)
 Model                             25          2 -2.85275134E-08                            1_GWF-(MAW_1-1)
 Model                             26          2  1.70381182E-08                            1_GWF-(MAW_1-1)
 Model                             27          2 -1.01724024E-08                            1_GWF-(MAW_1-1)
 Model                             28          2  6.06768330E-09                            1_GWF-(MAW_1-1)
 Model                             29          2 -3.61064034E-09                            1_GWF-(MAW_1-1)
 Model                             30          2  2.13463680E-09                            1_GWF-(MAW_1-1)
 Model                             31          2 -1.23899668E-09                            1_GWF-(MAW_1-1)
 Model                             32          1  6.79141521E-10       *                    1_GWF-(MAW_1-1)
 ----------------------------------------------------------------------------------------------------------


 32 CALLS TO NUMERICAL SOLUTION IN TIME STEP 48 STRESS PERIOD 1
 100 TOTAL ITERATIONS
 
    Solving:  Stress period:     1    Time step:    49
 

 SLN_1 OUTER ITERATION SUMMARY
 ----------------------------------------------------------------------------------------------------------
                                OUTER      INNER                    STEP   MAXIMUM CHANGE MODEL-(CELLID) OR
 OUTER ITERATION STEP       ITERATION  ITERATION  MAXIMUM CHANGE SUCCESS             MODEL-PACKAGE-(NUMBER)
 ----------------------------------------------------------------------------------------------------------
 Model                              1          6     -0.10022257                            1_GWF-(2,51,51)
 Model                              2          5  3.87302702E-03                            1_GWF-(MAW_1-1)
 Model                              3          5 -2.43360896E-03                            1_GWF-(MAW_1-1)
 Model                              4          5  1.51321990E-03                            1_GWF-(MAW_1-1)
 Model                              5          5 -9.47235054E-04                            1_GWF-(MAW_1-1)
 Model                              6          4  5.90508224E-04                            1_GWF-(MAW_1-1)
 Model                              7          4 -3.69079700E-04                            1_GWF-(MAW_1-1)
 Model                              8          4  2.30311272E-04                            1_GWF-(MAW_1-1)
 Model                              9          4 -1.43862733E-04                            1_GWF-(MAW_1-1)
 Model                             10          4  8.98066451E-05                            1_GWF-(MAW_1-1)
 Model                             11          4 -5.60840410E-05                            1_GWF-(MAW_1-1)
 Model                             12          4  3.50157678E-05                            1_GWF-(MAW_1-1)
 Model                             13          4 -2.18652539E-05                            1_GWF-(MAW_1-1)
 Model                             14          4  1.36522388E-05                            1_GWF-(MAW_1-1)
 Model                             15          3 -8.52470106E-06                            1_GWF-(MAW_1-1)
 Model                             16          3  5.32277674E-06                            1_GWF-(MAW_1-1)
 Model                             17          3 -3.32359004E-06                            1_GWF-(MAW_1-1)
 Model                             18          3  2.07524956E-06                            1_GWF-(MAW_1-1)
 Model                             19          3 -1.29579751E-06                            1_GWF-(MAW_1-1)
 Model                             20          3  8.09098617E-07                            1_GWF-(MAW_1-1)
 Model                             21          3 -5.05204548E-07                            1_GWF-(MAW_1-1)
 Model                             22          3  3.15451026E-07                            1_GWF-(MAW_1-1)
 Model                             23          3 -1.96968555E-07                            1_GWF-(MAW_1-1)
 Model                             24          3  1.22987402E-07                            1_GWF-(MAW_1-1)
 Model                             25          2 -7.67931317E-08                            1_GWF-(MAW_1-1)
 Model                             26          2  4.79488448E-08                            1_GWF-(MAW_1-1)
 Model                             27          2 -2.99376827E-08                            1_GWF-(MAW_1-1)
 Model                             28          2  1.86902184E-08                            1_GWF-(MAW_1-1)
 Model                             29          2 -1.16652316E-08                            1_GWF-(MAW_1-1)
 Model                             30          2  7.27584532E-09                            1_GWF-(MAW_1-1)
 Model                             31          2 -4.53102589E-09                            1_GWF-(MAW_1-1)
 Model                             32          2  2.81112167E-09                            1_GWF-(MAW_1-1)
 Model                             33          2 -1.72756659E-09                            1_GWF-(MAW_1-1)
 Model                             34          2  1.03542364E-09                            1_GWF-(MAW_1-1)
 Model                             35          1 -5.76019010E-10       *                    1_GWF-(MAW_1-1)
 ----------------------------------------------------------------------------------------------------------


 35 CALLS TO NUMERICAL SOLUTION IN TIME STEP 49 STRESS PERIOD 1
 113 TOTAL ITERATIONS
 
    Solving:  Stress period:     1    Time step:    50
 

 SLN_1 OUTER ITERATION SUMMARY
 ----------------------------------------------------------------------------------------------------------
                                OUTER      INNER                    STEP   MAXIMUM CHANGE MODEL-(CELLID) OR
 OUTER ITERATION STEP       ITERATION  ITERATION  MAXIMUM CHANGE SUCCESS             MODEL-PACKAGE-(NUMBER)
 ----------------------------------------------------------------------------------------------------------
 Model                              1          6 -9.29428570E-02                            1_GWF-(2,51,51)
 Model                              2          5  3.76040590E-03                            1_GWF-(MAW_1-1)
 Model                              3          5 -2.45279997E-03                            1_GWF-(MAW_1-1)
 Model                              4          5  1.58529775E-03                            1_GWF-(MAW_1-1)
 Model                              5          5 -1.03084595E-03                            1_GWF-(MAW_1-1)
 Model                              6          5  6.67714789E-04                            1_GWF-(MAW_1-1)
 Model                              7          5 -4.33602050E-04                            1_GWF-(MAW_1-1)
 Model                              8          4  2.81112466E-04                            1_GWF-(MAW_1-1)
 Model                              9          4 -1.82445095E-04                            1_GWF-(MAW_1-1)
 Model                             10          4  1.18327157E-04                            1_GWF-(MAW_1-1)
 Model                             11          4 -7.67770629E-05                            1_GWF-(MAW_1-1)
 Model                             12          4  4.98026319E-05                            1_GWF-(MAW_1-1)
 Model                             13          4 -3.23113467E-05                            1_GWF-(MAW_1-1)
 Model                             14          4  2.09606465E-05                            1_GWF-(MAW_1-1)
 Model                             15          4 -1.35984303E-05                            1_GWF-(MAW_1-1)
 Model                             16          4  8.82166397E-06                            1_GWF-(MAW_1-1)
 Model                             17          4 -5.72303969E-06                            1_GWF-(MAW_1-1)
 Model                             18          3  3.71273188E-06                            1_GWF-(MAW_1-1)
 Model                             19          3 -2.40861020E-06                            1_GWF-(MAW_1-1)
 Model                             20          3  1.56255561E-06                            1_GWF-(MAW_1-1)
 Model                             21          3 -1.01369427E-06                            1_GWF-(MAW_1-1)
 Model                             22          3  6.57622690E-07                            1_GWF-(MAW_1-1)
 Model                             23          3 -4.26626249E-07                            1_GWF-(MAW_1-1)
 Model                             24          3  2.76769013E-07                            1_GWF-(MAW_1-1)
 Model                             25          3 -1.79550825E-07                            1_GWF-(MAW_1-1)
 Model                             26          3  1.16481276E-07                            1_GWF-(MAW_1-1)
 Model                             27          3 -7.55653696E-08                            1_GWF-(MAW_1-1)
 Model                             28          2  4.90212091E-08                            1_GWF-(MAW_1-1)
 Model                             29          2 -3.18003572E-08                            1_GWF-(MAW_1-1)
 Model                             30          2  2.06274784E-08                            1_GWF-(MAW_1-1)
 Model                             31          2 -1.33774905E-08                            1_GWF-(MAW_1-1)
 Model                             32          2  8.67156219E-09                            1_GWF-(MAW_1-1)
 Model                             33          2 -5.61514707E-09                            1_GWF-(MAW_1-1)
 Model                             34          2  3.62763619E-09                            1_GWF-(MAW_1-1)
 Model                             35          2 -2.33139724E-09                            1_GWF-(MAW_1-1)
 Model                             36          2  1.47983192E-09                            1_GWF-(MAW_1-1)
 Model                             37          1 -9.09710973E-10       *                    1_GWF-(MAW_1-1)
 ----------------------------------------------------------------------------------------------------------


 37 CALLS TO NUMERICAL SOLUTION IN TIME STEP 50 STRESS PERIOD 1
 125 TOTAL ITERATIONS

 MEMORY MANAGER TOTAL STORAGE BY DATA TYPE, IN MEGABYTES
 -------------------------------
                    ALLOCATED   
 DATA TYPE           MEMORY     
 -------------------------------
 Character        7.77200000E-03
 Logical          5.20000000E-05
 Integer          4.1659320     
 Real             8.7928640     
 -------------------------------
 Total            12.966620     
 Virtual          0.0000000     
 -------------------------------


 
 Run end date and time (yyyy/mm/dd hh:mm:ss): 2025/05/20 19:06:50
 Elapsed run time:  2.691 Seconds
 Normal termination of simulation.
