                                  MODFLOW-2005     
      U.S. GEOLOGICAL SURVEY MODULAR FINITE-DIFFERENCE GROUND-WATER FLOW MODEL
                       VERSION 1.6.01 3/4/2009, with FMP2

 LIST FILE: transient.list
                         UNIT    2

 OPENING transient.dis
 FILE TYPE:DIS   UNIT   11   STATUS:OLD    
 FORMAT:FORMATTED              ACCESS:SEQUENTIAL          

 OPENING transient.bas
 FILE TYPE:BAS6   UNIT   13   STATUS:OLD    
 FORMAT:FORMATTED              ACCESS:SEQUENTIAL          

 OPENING transient.lpf
 FILE TYPE:LPF   UNIT   15   STATUS:OLD    
 FORMAT:FORMATTED              ACCESS:SEQUENTIAL          

 OPENING transient.pcg
 FILE TYPE:PCG   UNIT   27   STATUS:OLD    
 FORMAT:FORMATTED              ACCESS:SEQUENTIAL          

 OPENING transient.ghb
 FILE TYPE:GHB   UNIT   23   STATUS:OLD    
 FORMAT:FORMATTED              ACCESS:SEQUENTIAL          

 OPENING transient.wel
 FILE TYPE:WEL   UNIT   20   STATUS:OLD    
 FORMAT:FORMATTED              ACCESS:SEQUENTIAL          

 OPENING transient.oc
 FILE TYPE:OC   UNIT   14   STATUS:OLD    
 FORMAT:FORMATTED              ACCESS:SEQUENTIAL          

 OPENING transient.cbc
 FILE TYPE:DATA(BINARY)   UNIT   53   STATUS:REPLACE
 FORMAT:BINARY                 ACCESS:SEQUENTIAL          

 OPENING transient.hds
 FILE TYPE:DATA(BINARY)   UNIT   51   STATUS:REPLACE
 FORMAT:BINARY                 ACCESS:SEQUENTIAL          

 OPENING transient.ddn
 FILE TYPE:DATA(BINARY)   UNIT   52   STATUS:REPLACE
 FORMAT:BINARY                 ACCESS:SEQUENTIAL          

 BAS -- BASIC PACKAGE, VERSION 7, 5/2/2005 INPUT READ FROM UNIT   13

 DISCRETIZATION INPUT DATA READ FROM UNIT   11
 # DIS package for MODFLOW-2005 generated by Flopy 3.9.1
    1 LAYERS        10 ROWS        10 COLUMNS
    3 STRESS PERIOD(S) IN SIMULATION
 MODEL TIME UNIT IS DAYS
 MODEL LENGTH UNIT IS METERS
  Confining bed flag for each layer:
   0

                     DELR =   100.000    

                     DELC =   100.000    

 TOP ELEVATION OF LAYER 1 =   10.0000    

   MODEL LAYER BOTTOM EL. =  -50.0000     FOR LAYER   1


 STRESS PERIOD     LENGTH       TIME STEPS     MULTIPLIER FOR DELT    SS FLAG
 ----------------------------------------------------------------------------
        1         1.000000          1                    1.000         SS
        2         100.0000        100                    1.000         TR
        3         100.0000        100                    1.000         TR

 COMBINED STEADY-STATE AND TRANSIENT SIMULATION



 
 # BAS6 package for MODFLOW-2005 generated by Flopy 3.9.1                        
 THE FREE FORMAT OPTION HAS BEEN SELECTED



                     BOUNDARY ARRAY FOR LAYER   1
 READING ON UNIT   13 WITH FORMAT: (10I10)             

 AQUIFER HEAD WILL BE SET TO  -999.99     AT ALL NO-FLOW NODES (IBOUND=0).



                       INITIAL HEAD FOR LAYER   1
 READING ON UNIT   13 WITH FORMAT: (10E15.6)           
 # OC package for MODFLOW-2005 generated by Flopy 3.9.1

 OUTPUT CONTROL IS SPECIFIED ONLY AT TIME STEPS FOR WHICH OUTPUT IS DESIRED
 COMPACT CELL-BY-CELL BUDGET FILES WILL BE WRITTEN
 AUXILIARY DATA WILL BE SAVED IN CELL-BY-CELL BUDGET FILES
 HEAD PRINT FORMAT CODE IS   0    DRAWDOWN PRINT FORMAT CODE IS   0
 HEADS WILL BE SAVED ON UNIT   51    DRAWDOWNS WILL BE SAVED ON UNIT   52

 LPF -- LAYER-PROPERTY FLOW PACKAGE, VERSION 7, 5/2/2005
         INPUT READ FROM UNIT   15
 # LPF package for MODFLOW-2005 generated by Flopy 3.9.1
 CELL-BY-CELL FLOWS WILL BE SAVED ON UNIT   53
 HEAD AT CELLS THAT CONVERT TO DRY= -1.00000E+30
 No named parameters

   LAYER FLAGS:
 LAYER       LAYTYP        LAYAVG         CHANI        LAYVKA        LAYWET
 ---------------------------------------------------------------------------
    1             1             0     1.000E+00             0             0

   INTERPRETATION OF LAYER FLAGS:
                        INTERBLOCK     HORIZONTAL    DATA IN
         LAYER TYPE   TRANSMISSIVITY   ANISOTROPY   ARRAY VKA   WETTABILITY
 LAYER      (LAYTYP)      (LAYAVG)       (CHANI)      (LAYVKA)      (LAYWET)
 ---------------------------------------------------------------------------
    1   CONVERTIBLE      HARMONIC     1.000E+00    VERTICAL K  NON-WETTABLE

 WETTING CAPABILITY IS NOT ACTIVE IN ANY LAYER

    HYD. COND. ALONG ROWS =   1.00000     FOR LAYER   1

      VERTICAL HYD. COND. =   1.00000     FOR LAYER   1

         SPECIFIC STORAGE =  1.000000E-04 FOR LAYER   1

           SPECIFIC YIELD =  0.100000     FOR LAYER   1

 WEL -- WELL PACKAGE, VERSION 7, 5/2/2005 INPUT READ FROM UNIT   20
 # WEL package for MODFLOW-2005 generated by Flopy 3.9.1
 No named parameters
 MAXIMUM OF      1 ACTIVE WELLS AT ONE TIME


     0 Well parameters

 GHB -- GENERAL-HEAD BOUNDARY PACKAGE, VERSION 7, 5/2/2005
         INPUT READ FROM UNIT   23
 # GHB package for MODFLOW-2005 generated by Flopy 3.9.1
 No named parameters
 MAXIMUM OF     20 ACTIVE GHB CELLS AT ONE TIME


     0 GHB parameters

 PCG -- CONJUGATE-GRADIENT SOLUTION PACKAGE, VERSION 7, 5/2/2005
 # PCG package for MODFLOW-2005 generated by Flopy 3.9.1
 MAXIMUM OF     50 CALLS OF SOLUTION ROUTINE
 MAXIMUM OF     30 INTERNAL ITERATIONS PER CALL TO SOLUTION ROUTINE
 MATRIX PRECONDITIONING TYPE :    1



                                    SOLUTION BY THE CONJUGATE-GRADIENT METHOD
                                   -------------------------------------------
                    MAXIMUM NUMBER OF CALLS TO PCG ROUTINE =       50
                        MAXIMUM ITERATIONS PER CALL TO PCG =       30
                               MATRIX PRECONDITIONING TYPE =        1
        RELAXATION FACTOR (ONLY USED WITH PRECOND. TYPE 1) =    0.10000E+01
 PARAMETER OF POLYNOMIAL PRECOND. = 2 (2) OR IS CALCULATED :        0
                         HEAD CHANGE CRITERION FOR CLOSURE =    0.10000E-04
                     RESIDUAL CHANGE CRITERION FOR CLOSURE =    0.10000E-04
            PCG HEAD AND RESIDUAL CHANGE PRINTOUT INTERVAL =      999
     PRINTING FROM SOLVER IS LIMITED(1) OR SUPPRESSED (>1) =        3
                            STEADY-STATE DAMPING PARAMETER =    0.10000E+01
                               TRANSIENT DAMPING PARAMETER =    0.10000E+01
1
                            STRESS PERIOD NO.    1, LENGTH =   1.000000    
                            -----------------------------------------------

                              NUMBER OF TIME STEPS =     1

                               MULTIPLIER FOR DELT =     1.000

                            INITIAL TIME STEP SIZE =   1.000000    

 WELL NO.  LAYER   ROW   COL   STRESS RATE         
 --------------------------------------------------
      1      1      5      5       0.000    

      1 WELL 

 BOUND. NO. LAYER   ROW   COL     STAGE      CONDUCTANCE         
 ----------------------------------------------------------------
      1      1      1      1       10.00           6000.    
      2      1      1     10       0.000           5000.    
      3      1      2      1       10.00           6000.    
      4      1      2     10       0.000           5000.    
      5      1      3      1       10.00           6000.    
      6      1      3     10       0.000           5000.    
      7      1      4      1       10.00           6000.    
      8      1      4     10       0.000           5000.    
      9      1      5      1       10.00           6000.    
     10      1      5     10       0.000           5000.    
     11      1      6      1       10.00           6000.    
     12      1      6     10       0.000           5000.    
     13      1      7      1       10.00           6000.    
     14      1      7     10       0.000           5000.    
     15      1      8      1       10.00           6000.    
     16      1      8     10       0.000           5000.    
     17      1      9      1       10.00           6000.    
     18      1      9     10       0.000           5000.    
     19      1     10      1       10.00           6000.    
     20      1     10     10       0.000           5000.    

     20 GHB CELLS
 
 SOLVING FOR HEAD 

 OUTPUT CONTROL FOR STRESS PERIOD    1   TIME STEP   1
    SAVE HEAD FOR ALL LAYERS
    SAVE DRAWDOWN FOR ALL LAYERS
    SAVE BUDGET
    PRINT HEAD FOR ALL LAYERS
    PRINT BUDGET
 UBDSV2 SAVING "   CONSTANT HEAD" ON UNIT  53 AT TIME STEP  1, STRESS PERIOD   1
 UBDSV1 SAVING "FLOW RIGHT FACE " ON UNIT  53 AT TIME STEP  1, STRESS PERIOD   1
 UBDSV1 SAVING "FLOW FRONT FACE " ON UNIT  53 AT TIME STEP  1, STRESS PERIOD   1
1
              HEAD IN LAYER   1 AT END OF TIME STEP   1 IN STRESS PERIOD    1
  ---------------------------------------------------------------------------

            1           2           3           4           5           6           7           8           9          10
 ........................................................................................................................
   1    9.990       8.965       7.921       6.859       5.776       4.672       3.545       2.394       1.217      1.2194E-02
   2    9.990       8.965       7.921       6.859       5.776       4.672       3.545       2.394       1.217      1.2194E-02
   3    9.990       8.965       7.921       6.859       5.776       4.672       3.545       2.394       1.217      1.2194E-02
   4    9.990       8.965       7.921       6.859       5.776       4.672       3.545       2.394       1.217      1.2194E-02
   5    9.990       8.965       7.921       6.859       5.776       4.672       3.545       2.394       1.217      1.2194E-02
   6    9.990       8.965       7.921       6.859       5.776       4.672       3.545       2.394       1.217      1.2194E-02
   7    9.990       8.965       7.921       6.859       5.776       4.672       3.545       2.394       1.217      1.2194E-02
   8    9.990       8.965       7.921       6.859       5.776       4.672       3.545       2.394       1.217      1.2194E-02
   9    9.990       8.965       7.921       6.859       5.776       4.672       3.545       2.394       1.217      1.2194E-02
  10    9.990       8.965       7.921       6.859       5.776       4.672       3.545       2.394       1.217      1.2194E-02

 HEAD WILL BE SAVED ON UNIT   51 AT END OF TIME STEP   1, STRESS PERIOD    1

 DRAWDOWN WILL BE SAVED ON UNIT   52 AT END OF TIME STEP   1, STRESS PERIOD    1
1
  VOLUMETRIC BUDGET FOR ENTIRE MODEL AT END OF TIME STEP  1 IN STRESS PERIOD   1
  ------------------------------------------------------------------------------

     CUMULATIVE VOLUMES      L**3       RATES FOR THIS TIME STEP      L**3/T
     ------------------                 ------------------------

           IN:                                      IN:
           ---                                      ---
             STORAGE =           0.0000               STORAGE =           0.0000
       CONSTANT HEAD =           0.0000         CONSTANT HEAD =           0.0000
               WELLS =           0.0000                 WELLS =           0.0000
     HEAD DEP BOUNDS =         609.6933       HEAD DEP BOUNDS =         609.6933

            TOTAL IN =         609.6933              TOTAL IN =         609.6933

          OUT:                                     OUT:
          ----                                     ----
             STORAGE =           0.0000               STORAGE =           0.0000
       CONSTANT HEAD =           0.0000         CONSTANT HEAD =           0.0000
               WELLS =           0.0000                 WELLS =           0.0000
     HEAD DEP BOUNDS =         609.6933       HEAD DEP BOUNDS =         609.6933

           TOTAL OUT =         609.6933             TOTAL OUT =         609.6933

            IN - OUT =           0.0000              IN - OUT =           0.0000

 PERCENT DISCREPANCY =           0.00     PERCENT DISCREPANCY =           0.00






          TIME SUMMARY AT END OF TIME STEP   1 IN STRESS PERIOD    1
                    SECONDS     MINUTES      HOURS       DAYS        YEARS
                    -----------------------------------------------------------
   TIME STEP LENGTH  86400.      1440.0      24.000      1.0000     2.73785E-03
 STRESS PERIOD TIME  86400.      1440.0      24.000      1.0000     2.73785E-03
         TOTAL TIME  86400.      1440.0      24.000      1.0000     2.73785E-03
1
1
                            STRESS PERIOD NO.    2, LENGTH =   100.0000    
                            -----------------------------------------------

                              NUMBER OF TIME STEPS =   100

                               MULTIPLIER FOR DELT =     1.000

                            INITIAL TIME STEP SIZE =   1.000000    

 WELL NO.  LAYER   ROW   COL   STRESS RATE         
 --------------------------------------------------
      1      1      5      5       0.000    

      1 WELL 

 BOUND. NO. LAYER   ROW   COL     STAGE      CONDUCTANCE         
 ----------------------------------------------------------------
      1      1      1      1       10.00           6000.    
      2      1      1     10       0.000           5000.    
      3      1      2      1       10.00           6000.    
      4      1      2     10       0.000           5000.    
      5      1      3      1       10.00           6000.    
      6      1      3     10       0.000           5000.    
      7      1      4      1       10.00           6000.    
      8      1      4     10       0.000           5000.    
      9      1      5      1       10.00           6000.    
     10      1      5     10       0.000           5000.    
     11      1      6      1       10.00           6000.    
     12      1      6     10       0.000           5000.    
     13      1      7      1       10.00           6000.    
     14      1      7     10       0.000           5000.    
     15      1      8      1       10.00           6000.    
     16      1      8     10       0.000           5000.    
     17      1      9      1       10.00           6000.    
     18      1      9     10       0.000           5000.    
     19      1     10      1       10.00           6000.    
     20      1     10     10       0.000           5000.    

     20 GHB CELLS
 
 SOLVING FOR HEAD 

 OUTPUT CONTROL FOR STRESS PERIOD    2   TIME STEP   1
    SAVE HEAD FOR ALL LAYERS
    SAVE DRAWDOWN FOR ALL LAYERS
    SAVE BUDGET
    PRINT HEAD FOR ALL LAYERS
    PRINT BUDGET
 UBDSV1 SAVING "         STORAGE" ON UNIT  53 AT TIME STEP  1, STRESS PERIOD   2
 UBDSV2 SAVING "   CONSTANT HEAD" ON UNIT  53 AT TIME STEP  1, STRESS PERIOD   2
 UBDSV1 SAVING "FLOW RIGHT FACE " ON UNIT  53 AT TIME STEP  1, STRESS PERIOD   2
 UBDSV1 SAVING "FLOW FRONT FACE " ON UNIT  53 AT TIME STEP  1, STRESS PERIOD   2
1
              HEAD IN LAYER   1 AT END OF TIME STEP   1 IN STRESS PERIOD    2
  ---------------------------------------------------------------------------

            1           2           3           4           5           6           7           8           9          10
 ........................................................................................................................
   1    9.990       8.965       7.921       6.859       5.776       4.672       3.545       2.394       1.217      1.2194E-02
   2    9.990       8.965       7.921       6.859       5.776       4.672       3.545       2.394       1.217      1.2194E-02
   3    9.990       8.965       7.921       6.859       5.776       4.672       3.545       2.394       1.217      1.2194E-02
   4    9.990       8.965       7.921       6.859       5.776       4.672       3.545       2.394       1.217      1.2194E-02
   5    9.990       8.965       7.921       6.859       5.776       4.672       3.545       2.394       1.217      1.2194E-02
   6    9.990       8.965       7.921       6.859       5.776       4.672       3.545       2.394       1.217      1.2194E-02
   7    9.990       8.965       7.921       6.859       5.776       4.672       3.545       2.394       1.217      1.2194E-02
   8    9.990       8.965       7.921       6.859       5.776       4.672       3.545       2.394       1.217      1.2194E-02
   9    9.990       8.965       7.921       6.859       5.776       4.672       3.545       2.394       1.217      1.2194E-02
  10    9.990       8.965       7.921       6.859       5.776       4.672       3.545       2.394       1.217      1.2194E-02

 HEAD WILL BE SAVED ON UNIT   51 AT END OF TIME STEP   1, STRESS PERIOD    2

 DRAWDOWN WILL BE SAVED ON UNIT   52 AT END OF TIME STEP   1, STRESS PERIOD    2
1
  VOLUMETRIC BUDGET FOR ENTIRE MODEL AT END OF TIME STEP  1 IN STRESS PERIOD   2
  ------------------------------------------------------------------------------

     CUMULATIVE VOLUMES      L**3       RATES FOR THIS TIME STEP      L**3/T
     ------------------                 ------------------------

           IN:                                      IN:
           ---                                      ---
             STORAGE =       9.7656E-03               STORAGE =       9.7656E-03
       CONSTANT HEAD =           0.0000         CONSTANT HEAD =           0.0000
               WELLS =           0.0000                 WELLS =           0.0000
     HEAD DEP BOUNDS =        1219.4080       HEAD DEP BOUNDS =         609.7146

            TOTAL IN =        1219.4177              TOTAL IN =         609.7244

          OUT:                                     OUT:
          ----                                     ----
             STORAGE =       4.4212E-03               STORAGE =       4.4212E-03
       CONSTANT HEAD =           0.0000         CONSTANT HEAD =           0.0000
               WELLS =           0.0000                 WELLS =           0.0000
     HEAD DEP BOUNDS =        1219.3821       HEAD DEP BOUNDS =         609.6888

           TOTAL OUT =        1219.3865             TOTAL OUT =         609.6932

            IN - OUT =       3.1250E-02              IN - OUT =       3.1128E-02

 PERCENT DISCREPANCY =           0.00     PERCENT DISCREPANCY =           0.01






          TIME SUMMARY AT END OF TIME STEP   1 IN STRESS PERIOD    2
                    SECONDS     MINUTES      HOURS       DAYS        YEARS
                    -----------------------------------------------------------
   TIME STEP LENGTH  86400.      1440.0      24.000      1.0000     2.73785E-03
 STRESS PERIOD TIME  86400.      1440.0      24.000      1.0000     2.73785E-03
         TOTAL TIME 1.72800E+05  2880.0      48.000      2.0000     5.47570E-03
1
 
 SOLVING FOR HEAD 

 OUTPUT CONTROL FOR STRESS PERIOD    2   TIME STEP   2
    SAVE HEAD FOR ALL LAYERS
    SAVE DRAWDOWN FOR ALL LAYERS
    SAVE BUDGET
    PRINT HEAD FOR ALL LAYERS
    PRINT BUDGET
 UBDSV1 SAVING "         STORAGE" ON UNIT  53 AT TIME STEP  2, STRESS PERIOD   2
 UBDSV2 SAVING "   CONSTANT HEAD" ON UNIT  53 AT TIME STEP  2, STRESS PERIOD   2
 UBDSV1 SAVING "FLOW RIGHT FACE " ON UNIT  53 AT TIME STEP  2, STRESS PERIOD   2
 UBDSV1 SAVING "FLOW FRONT FACE " ON UNIT  53 AT TIME STEP  2, STRESS PERIOD   2
1
              HEAD IN LAYER   1 AT END OF TIME STEP   2 IN STRESS PERIOD    2
  ---------------------------------------------------------------------------

            1           2           3           4           5           6           7           8           9          10
 ........................................................................................................................
   1    9.990       8.965       7.921       6.859       5.776       4.672       3.545       2.394       1.217      1.2194E-02
   2    9.990       8.965       7.921       6.859       5.776       4.672       3.545       2.394       1.217      1.2194E-02
   3    9.990       8.965       7.921       6.859       5.776       4.672       3.545       2.394       1.217      1.2194E-02
   4    9.990       8.965       7.921       6.859       5.776       4.672       3.545       2.394       1.217      1.2194E-02
   5    9.990       8.965       7.921       6.859       5.776       4.672       3.545       2.394       1.217      1.2194E-02
   6    9.990       8.965       7.921       6.859       5.776       4.672       3.545       2.394       1.217      1.2194E-02
   7    9.990       8.965       7.921       6.859       5.776       4.672       3.545       2.394       1.217      1.2194E-02
   8    9.990       8.965       7.921       6.859       5.776       4.672       3.545       2.394       1.217      1.2194E-02
   9    9.990       8.965       7.921       6.859       5.776       4.672       3.545       2.394       1.217      1.2194E-02
  10    9.990       8.965       7.921       6.859       5.776       4.672       3.545       2.394       1.217      1.2194E-02

 HEAD WILL BE SAVED ON UNIT   51 AT END OF TIME STEP   2, STRESS PERIOD    2

 DRAWDOWN WILL BE SAVED ON UNIT   52 AT END OF TIME STEP   2, STRESS PERIOD    2
1
  VOLUMETRIC BUDGET FOR ENTIRE MODEL AT END OF TIME STEP  2 IN STRESS PERIOD   2
  ------------------------------------------------------------------------------

     CUMULATIVE VOLUMES      L**3       RATES FOR THIS TIME STEP      L**3/T
     ------------------                 ------------------------

           IN:                                      IN:
           ---                                      ---
             STORAGE =       9.7656E-03               STORAGE =           0.0000
       CONSTANT HEAD =           0.0000         CONSTANT HEAD =           0.0000
               WELLS =           0.0000                 WELLS =           0.0000
     HEAD DEP BOUNDS =        1829.1226       HEAD DEP BOUNDS =         609.7147

            TOTAL IN =        1829.1323              TOTAL IN =         609.7147

          OUT:                                     OUT:
          ----                                     ----
             STORAGE =       9.8190E-03               STORAGE =       5.3978E-03
       CONSTANT HEAD =           0.0000         CONSTANT HEAD =           0.0000
               WELLS =           0.0000                 WELLS =           0.0000
     HEAD DEP BOUNDS =        1829.0709       HEAD DEP BOUNDS =         609.6888

           TOTAL OUT =        1829.0807             TOTAL OUT =         609.6942

            IN - OUT =       5.1636E-02              IN - OUT =       2.0447E-02

 PERCENT DISCREPANCY =           0.00     PERCENT DISCREPANCY =           0.00






          TIME SUMMARY AT END OF TIME STEP   2 IN STRESS PERIOD    2
                    SECONDS     MINUTES      HOURS       DAYS        YEARS
                    -----------------------------------------------------------
   TIME STEP LENGTH  86400.      1440.0      24.000      1.0000     2.73785E-03
 STRESS PERIOD TIME 1.72800E+05  2880.0      48.000      2.0000     5.47570E-03
         TOTAL TIME 2.59200E+05  4320.0      72.000      3.0000     8.21355E-03
1
 
 SOLVING FOR HEAD 

 OUTPUT CONTROL FOR STRESS PERIOD    2   TIME STEP   3
    SAVE HEAD FOR ALL LAYERS
    SAVE DRAWDOWN FOR ALL LAYERS
    SAVE BUDGET
    PRINT HEAD FOR ALL LAYERS
    PRINT BUDGET
 UBDSV1 SAVING "         STORAGE" ON UNIT  53 AT TIME STEP  3, STRESS PERIOD   2
 UBDSV2 SAVING "   CONSTANT HEAD" ON UNIT  53 AT TIME STEP  3, STRESS PERIOD   2
 UBDSV1 SAVING "FLOW RIGHT FACE " ON UNIT  53 AT TIME STEP  3, STRESS PERIOD   2
 UBDSV1 SAVING "FLOW FRONT FACE " ON UNIT  53 AT TIME STEP  3, STRESS PERIOD   2
1
              HEAD IN LAYER   1 AT END OF TIME STEP   3 IN STRESS PERIOD    2
  ---------------------------------------------------------------------------

            1           2           3           4           5           6           7           8           9          10
 ........................................................................................................................
   1    9.990       8.965       7.921       6.859       5.776       4.672       3.545       2.394       1.217      1.2194E-02
   2    9.990       8.965       7.921       6.859       5.776       4.672       3.545       2.394       1.217      1.2194E-02
   3    9.990       8.965       7.921       6.859       5.776       4.672       3.545       2.394       1.217      1.2194E-02
   4    9.990       8.965       7.921       6.859       5.776       4.672       3.545       2.394       1.217      1.2194E-02
   5    9.990       8.965       7.921       6.859       5.776       4.672       3.545       2.394       1.217      1.2194E-02
   6    9.990       8.965       7.921       6.859       5.776       4.672       3.545       2.394       1.217      1.2194E-02
   7    9.990       8.965       7.921       6.859       5.776       4.672       3.545       2.394       1.217      1.2194E-02
   8    9.990       8.965       7.921       6.859       5.776       4.672       3.545       2.394       1.217      1.2194E-02
   9    9.990       8.965       7.921       6.859       5.776       4.672       3.545       2.394       1.217      1.2194E-02
  10    9.990       8.965       7.921       6.859       5.776       4.672       3.545       2.394       1.217      1.2194E-02

 HEAD WILL BE SAVED ON UNIT   51 AT END OF TIME STEP   3, STRESS PERIOD    2

 DRAWDOWN WILL BE SAVED ON UNIT   52 AT END OF TIME STEP   3, STRESS PERIOD    2
1
  VOLUMETRIC BUDGET FOR ENTIRE MODEL AT END OF TIME STEP  3 IN STRESS PERIOD   2
  ------------------------------------------------------------------------------

     CUMULATIVE VOLUMES      L**3       RATES FOR THIS TIME STEP      L**3/T
     ------------------                 ------------------------

           IN:                                      IN:
           ---                                      ---
             STORAGE =       9.7656E-03               STORAGE =           0.0000
       CONSTANT HEAD =           0.0000         CONSTANT HEAD =           0.0000
               WELLS =           0.0000                 WELLS =           0.0000
     HEAD DEP BOUNDS =        2438.8372       HEAD DEP BOUNDS =         609.7147

            TOTAL IN =        2438.8469              TOTAL IN =         609.7147

          OUT:                                     OUT:
          ----                                     ----
             STORAGE =       1.5217E-02               STORAGE =       5.3978E-03
       CONSTANT HEAD =           0.0000         CONSTANT HEAD =           0.0000
               WELLS =           0.0000                 WELLS =           0.0000
     HEAD DEP BOUNDS =        2438.7598       HEAD DEP BOUNDS =         609.6888

           TOTAL OUT =        2438.7749             TOTAL OUT =         609.6942

            IN - OUT =       7.2021E-02              IN - OUT =       2.0447E-02

 PERCENT DISCREPANCY =           0.00     PERCENT DISCREPANCY =           0.00






          TIME SUMMARY AT END OF TIME STEP   3 IN STRESS PERIOD    2
                    SECONDS     MINUTES      HOURS       DAYS        YEARS
                    -----------------------------------------------------------
   TIME STEP LENGTH  86400.      1440.0      24.000      1.0000     2.73785E-03
 STRESS PERIOD TIME 2.59200E+05  4320.0      72.000      3.0000     8.21355E-03
         TOTAL TIME 3.45600E+05  5760.0      96.000      4.0000     1.09514E-02
1
 
 SOLVING FOR HEAD 

 OUTPUT CONTROL FOR STRESS PERIOD    2   TIME STEP   4
    SAVE HEAD FOR ALL LAYERS
    SAVE DRAWDOWN FOR ALL LAYERS
    SAVE BUDGET
    PRINT HEAD FOR ALL LAYERS
    PRINT BUDGET
 UBDSV1 SAVING "         STORAGE" ON UNIT  53 AT TIME STEP  4, STRESS PERIOD   2
 UBDSV2 SAVING "   CONSTANT HEAD" ON UNIT  53 AT TIME STEP  4, STRESS PERIOD   2
 UBDSV1 SAVING "FLOW RIGHT FACE " ON UNIT  53 AT TIME STEP  4, STRESS PERIOD   2
 UBDSV1 SAVING "FLOW FRONT FACE " ON UNIT  53 AT TIME STEP  4, STRESS PERIOD   2
1
              HEAD IN LAYER   1 AT END OF TIME STEP   4 IN STRESS PERIOD    2
  ---------------------------------------------------------------------------

            1           2           3           4           5           6           7           8           9          10
 ........................................................................................................................
   1    9.990       8.965       7.921       6.859       5.776       4.672       3.545       2.394       1.217      1.2194E-02
   2    9.990       8.965       7.921       6.859       5.776       4.672       3.545       2.394       1.217      1.2194E-02
   3    9.990       8.965       7.921       6.859       5.776       4.672       3.545       2.394       1.217      1.2194E-02
   4    9.990       8.965       7.921       6.859       5.776       4.672       3.545       2.394       1.217      1.2194E-02
   5    9.990       8.965       7.921       6.859       5.776       4.672       3.545       2.394       1.217      1.2194E-02
   6    9.990       8.965       7.921       6.859       5.776       4.672       3.545       2.394       1.217      1.2194E-02
   7    9.990       8.965       7.921       6.859       5.776       4.672       3.545       2.394       1.217      1.2194E-02
   8    9.990       8.965       7.921       6.859       5.776       4.672       3.545       2.394       1.217      1.2194E-02
   9    9.990       8.965       7.921       6.859       5.776       4.672       3.545       2.394       1.217      1.2194E-02
  10    9.990       8.965       7.921       6.859       5.776       4.672       3.545       2.394       1.217      1.2194E-02

 HEAD WILL BE SAVED ON UNIT   51 AT END OF TIME STEP   4, STRESS PERIOD    2

 DRAWDOWN WILL BE SAVED ON UNIT   52 AT END OF TIME STEP   4, STRESS PERIOD    2
1
  VOLUMETRIC BUDGET FOR ENTIRE MODEL AT END OF TIME STEP  4 IN STRESS PERIOD   2
  ------------------------------------------------------------------------------

     CUMULATIVE VOLUMES      L**3       RATES FOR THIS TIME STEP      L**3/T
     ------------------                 ------------------------

           IN:                                      IN:
           ---                                      ---
             STORAGE =       9.7656E-03               STORAGE =           0.0000
       CONSTANT HEAD =           0.0000         CONSTANT HEAD =           0.0000
               WELLS =           0.0000                 WELLS =           0.0000
     HEAD DEP BOUNDS =        3048.5518       HEAD DEP BOUNDS =         609.7147

            TOTAL IN =        3048.5615              TOTAL IN =         609.7147

          OUT:                                     OUT:
          ----                                     ----
             STORAGE =       2.0615E-02               STORAGE =       5.3978E-03
       CONSTANT HEAD =           0.0000         CONSTANT HEAD =           0.0000
               WELLS =           0.0000                 WELLS =           0.0000
     HEAD DEP BOUNDS =        3048.4487       HEAD DEP BOUNDS =         609.6888

           TOTAL OUT =        3048.4692             TOTAL OUT =         609.6942

            IN - OUT =       9.2285E-02              IN - OUT =       2.0447E-02

 PERCENT DISCREPANCY =           0.00     PERCENT DISCREPANCY =           0.00






          TIME SUMMARY AT END OF TIME STEP   4 IN STRESS PERIOD    2
                    SECONDS     MINUTES      HOURS       DAYS        YEARS
                    -----------------------------------------------------------
   TIME STEP LENGTH  86400.      1440.0      24.000      1.0000     2.73785E-03
 STRESS PERIOD TIME 3.45600E+05  5760.0      96.000      4.0000     1.09514E-02
         TOTAL TIME 4.32000E+05  7200.0      120.00      5.0000     1.36893E-02
1
 
 SOLVING FOR HEAD 

 OUTPUT CONTROL FOR STRESS PERIOD    2   TIME STEP   5
    SAVE HEAD FOR ALL LAYERS
    SAVE DRAWDOWN FOR ALL LAYERS
    SAVE BUDGET
    PRINT HEAD FOR ALL LAYERS
    PRINT BUDGET
 UBDSV1 SAVING "         STORAGE" ON UNIT  53 AT TIME STEP  5, STRESS PERIOD   2
 UBDSV2 SAVING "   CONSTANT HEAD" ON UNIT  53 AT TIME STEP  5, STRESS PERIOD   2
 UBDSV1 SAVING "FLOW RIGHT FACE " ON UNIT  53 AT TIME STEP  5, STRESS PERIOD   2
 UBDSV1 SAVING "FLOW FRONT FACE " ON UNIT  53 AT TIME STEP  5, STRESS PERIOD   2
1
              HEAD IN LAYER   1 AT END OF TIME STEP   5 IN STRESS PERIOD    2
  ---------------------------------------------------------------------------

            1           2           3           4           5           6           7           8           9          10
 ........................................................................................................................
   1    9.990       8.965       7.921       6.859       5.776       4.672       3.545       2.394       1.217      1.2194E-02
   2    9.990       8.965       7.921       6.859       5.776       4.672       3.545       2.394       1.217      1.2194E-02
   3    9.990       8.965       7.921       6.859       5.776       4.672       3.545       2.394       1.217      1.2194E-02
   4    9.990       8.965       7.921       6.859       5.776       4.672       3.545       2.394       1.217      1.2194E-02
   5    9.990       8.965       7.921       6.859       5.776       4.672       3.545       2.394       1.217      1.2194E-02
   6    9.990       8.965       7.921       6.859       5.776       4.672       3.545       2.394       1.217      1.2194E-02
   7    9.990       8.965       7.921       6.859       5.776       4.672       3.545       2.394       1.217      1.2194E-02
   8    9.990       8.965       7.921       6.859       5.776       4.672       3.545       2.394       1.217      1.2194E-02
   9    9.990       8.965       7.921       6.859       5.776       4.672       3.545       2.394       1.217      1.2194E-02
  10    9.990       8.965       7.921       6.859       5.776       4.672       3.545       2.394       1.217      1.2194E-02

 HEAD WILL BE SAVED ON UNIT   51 AT END OF TIME STEP   5, STRESS PERIOD    2

 DRAWDOWN WILL BE SAVED ON UNIT   52 AT END OF TIME STEP   5, STRESS PERIOD    2
1
  VOLUMETRIC BUDGET FOR ENTIRE MODEL AT END OF TIME STEP  5 IN STRESS PERIOD   2
  ------------------------------------------------------------------------------

     CUMULATIVE VOLUMES      L**3       RATES FOR THIS TIME STEP      L**3/T
     ------------------                 ------------------------

           IN:                                      IN:
           ---                                      ---
             STORAGE =       9.7656E-03               STORAGE =           0.0000
       CONSTANT HEAD =           0.0000         CONSTANT HEAD =           0.0000
               WELLS =           0.0000                 WELLS =           0.0000
     HEAD DEP BOUNDS =        3658.2664       HEAD DEP BOUNDS =         609.7147

            TOTAL IN =        3658.2761              TOTAL IN =         609.7147

          OUT:                                     OUT:
          ----                                     ----
             STORAGE =       2.6012E-02               STORAGE =       5.3978E-03
       CONSTANT HEAD =           0.0000         CONSTANT HEAD =           0.0000
               WELLS =           0.0000                 WELLS =           0.0000
     HEAD DEP BOUNDS =        3658.1377       HEAD DEP BOUNDS =         609.6888

           TOTAL OUT =        3658.1638             TOTAL OUT =         609.6942

            IN - OUT =           0.1123              IN - OUT =       2.0447E-02

 PERCENT DISCREPANCY =           0.00     PERCENT DISCREPANCY =           0.00






          TIME SUMMARY AT END OF TIME STEP   5 IN STRESS PERIOD    2
                    SECONDS     MINUTES      HOURS       DAYS        YEARS
                    -----------------------------------------------------------
   TIME STEP LENGTH  86400.      1440.0      24.000      1.0000     2.73785E-03
 STRESS PERIOD TIME 4.32000E+05  7200.0      120.00      5.0000     1.36893E-02
         TOTAL TIME 5.18400E+05  8640.0      144.00      6.0000     1.64271E-02
1
 
 SOLVING FOR HEAD 

 OUTPUT CONTROL FOR STRESS PERIOD    2   TIME STEP   6
    SAVE HEAD FOR ALL LAYERS
    SAVE DRAWDOWN FOR ALL LAYERS
    SAVE BUDGET
    PRINT HEAD FOR ALL LAYERS
    PRINT BUDGET
 UBDSV1 SAVING "         STORAGE" ON UNIT  53 AT TIME STEP  6, STRESS PERIOD   2
 UBDSV2 SAVING "   CONSTANT HEAD" ON UNIT  53 AT TIME STEP  6, STRESS PERIOD   2
 UBDSV1 SAVING "FLOW RIGHT FACE " ON UNIT  53 AT TIME STEP  6, STRESS PERIOD   2
 UBDSV1 SAVING "FLOW FRONT FACE " ON UNIT  53 AT TIME STEP  6, STRESS PERIOD   2
1
              HEAD IN LAYER   1 AT END OF TIME STEP   6 IN STRESS PERIOD    2
  ---------------------------------------------------------------------------

            1           2           3           4           5           6           7           8           9          10
 ........................................................................................................................
   1    9.990       8.965       7.921       6.859       5.776       4.672       3.545       2.394       1.217      1.2194E-02
   2    9.990       8.965       7.921       6.859       5.776       4.672       3.545       2.394       1.217      1.2194E-02
   3    9.990       8.965       7.921       6.859       5.776       4.672       3.545       2.394       1.217      1.2194E-02
   4    9.990       8.965       7.921       6.859       5.776       4.672       3.545       2.394       1.217      1.2194E-02
   5    9.990       8.965       7.921       6.859       5.776       4.672       3.545       2.394       1.217      1.2194E-02
   6    9.990       8.965       7.921       6.859       5.776       4.672       3.545       2.394       1.217      1.2194E-02
   7    9.990       8.965       7.921       6.859       5.776       4.672       3.545       2.394       1.217      1.2194E-02
   8    9.990       8.965       7.921       6.859       5.776       4.672       3.545       2.394       1.217      1.2194E-02
   9    9.990       8.965       7.921       6.859       5.776       4.672       3.545       2.394       1.217      1.2194E-02
  10    9.990       8.965       7.921       6.859       5.776       4.672       3.545       2.394       1.217      1.2194E-02

 HEAD WILL BE SAVED ON UNIT   51 AT END OF TIME STEP   6, STRESS PERIOD    2

 DRAWDOWN WILL BE SAVED ON UNIT   52 AT END OF TIME STEP   6, STRESS PERIOD    2
1
  VOLUMETRIC BUDGET FOR ENTIRE MODEL AT END OF TIME STEP  6 IN STRESS PERIOD   2
  ------------------------------------------------------------------------------

     CUMULATIVE VOLUMES      L**3       RATES FOR THIS TIME STEP      L**3/T
     ------------------                 ------------------------

           IN:                                      IN:
           ---                                      ---
             STORAGE =       9.7656E-03               STORAGE =           0.0000
       CONSTANT HEAD =           0.0000         CONSTANT HEAD =           0.0000
               WELLS =           0.0000                 WELLS =           0.0000
     HEAD DEP BOUNDS =        4267.9810       HEAD DEP BOUNDS =         609.7147

            TOTAL IN =        4267.9907              TOTAL IN =         609.7147

          OUT:                                     OUT:
          ----                                     ----
             STORAGE =       3.1410E-02               STORAGE =       5.3978E-03
       CONSTANT HEAD =           0.0000         CONSTANT HEAD =           0.0000
               WELLS =           0.0000                 WELLS =           0.0000
     HEAD DEP BOUNDS =        4267.8267       HEAD DEP BOUNDS =         609.6888

           TOTAL OUT =        4267.8579             TOTAL OUT =         609.6942

            IN - OUT =           0.1328              IN - OUT =       2.0447E-02

 PERCENT DISCREPANCY =           0.00     PERCENT DISCREPANCY =           0.00






          TIME SUMMARY AT END OF TIME STEP   6 IN STRESS PERIOD    2
                    SECONDS     MINUTES      HOURS       DAYS        YEARS
                    -----------------------------------------------------------
   TIME STEP LENGTH  86400.      1440.0      24.000      1.0000     2.73785E-03
 STRESS PERIOD TIME 5.18400E+05  8640.0      144.00      6.0000     1.64271E-02
         TOTAL TIME 6.04800E+05  10080.      168.00      7.0000     1.91650E-02
1
 
 SOLVING FOR HEAD 

 OUTPUT CONTROL FOR STRESS PERIOD    2   TIME STEP   7
    SAVE HEAD FOR ALL LAYERS
    SAVE DRAWDOWN FOR ALL LAYERS
    SAVE BUDGET
    PRINT HEAD FOR ALL LAYERS
    PRINT BUDGET
 UBDSV1 SAVING "         STORAGE" ON UNIT  53 AT TIME STEP  7, STRESS PERIOD   2
 UBDSV2 SAVING "   CONSTANT HEAD" ON UNIT  53 AT TIME STEP  7, STRESS PERIOD   2
 UBDSV1 SAVING "FLOW RIGHT FACE " ON UNIT  53 AT TIME STEP  7, STRESS PERIOD   2
 UBDSV1 SAVING "FLOW FRONT FACE " ON UNIT  53 AT TIME STEP  7, STRESS PERIOD   2
1
              HEAD IN LAYER   1 AT END OF TIME STEP   7 IN STRESS PERIOD    2
  ---------------------------------------------------------------------------

            1           2           3           4           5           6           7           8           9          10
 ........................................................................................................................
   1    9.990       8.965       7.921       6.859       5.776       4.672       3.545       2.394       1.217      1.2194E-02
   2    9.990       8.965       7.921       6.859       5.776       4.672       3.545       2.394       1.217      1.2194E-02
   3    9.990       8.965       7.921       6.859       5.776       4.672       3.545       2.394       1.217      1.2194E-02
   4    9.990       8.965       7.921       6.859       5.776       4.672       3.545       2.394       1.217      1.2194E-02
   5    9.990       8.965       7.921       6.859       5.776       4.672       3.545       2.394       1.217      1.2194E-02
   6    9.990       8.965       7.921       6.859       5.776       4.672       3.545       2.394       1.217      1.2194E-02
   7    9.990       8.965       7.921       6.859       5.776       4.672       3.545       2.394       1.217      1.2194E-02
   8    9.990       8.965       7.921       6.859       5.776       4.672       3.545       2.394       1.217      1.2194E-02
   9    9.990       8.965       7.921       6.859       5.776       4.672       3.545       2.394       1.217      1.2194E-02
  10    9.990       8.965       7.921       6.859       5.776       4.672       3.545       2.394       1.217      1.2194E-02

 HEAD WILL BE SAVED ON UNIT   51 AT END OF TIME STEP   7, STRESS PERIOD    2

 DRAWDOWN WILL BE SAVED ON UNIT   52 AT END OF TIME STEP   7, STRESS PERIOD    2
1
  VOLUMETRIC BUDGET FOR ENTIRE MODEL AT END OF TIME STEP  7 IN STRESS PERIOD   2
  ------------------------------------------------------------------------------

     CUMULATIVE VOLUMES      L**3       RATES FOR THIS TIME STEP      L**3/T
     ------------------                 ------------------------

           IN:                                      IN:
           ---                                      ---
             STORAGE =       9.7656E-03               STORAGE =           0.0000
       CONSTANT HEAD =           0.0000         CONSTANT HEAD =           0.0000
               WELLS =           0.0000                 WELLS =           0.0000
     HEAD DEP BOUNDS =        4877.6958       HEAD DEP BOUNDS =         609.7147

            TOTAL IN =        4877.7056              TOTAL IN =         609.7147

          OUT:                                     OUT:
          ----                                     ----
             STORAGE =       3.6808E-02               STORAGE =       5.3978E-03
       CONSTANT HEAD =           0.0000         CONSTANT HEAD =           0.0000
               WELLS =           0.0000                 WELLS =           0.0000
     HEAD DEP BOUNDS =        4877.5156       HEAD DEP BOUNDS =         609.6888

           TOTAL OUT =        4877.5522             TOTAL OUT =         609.6942

            IN - OUT =           0.1533              IN - OUT =       2.0447E-02

 PERCENT DISCREPANCY =           0.00     PERCENT DISCREPANCY =           0.00






          TIME SUMMARY AT END OF TIME STEP   7 IN STRESS PERIOD    2
                    SECONDS     MINUTES      HOURS       DAYS        YEARS
                    -----------------------------------------------------------
   TIME STEP LENGTH  86400.      1440.0      24.000      1.0000     2.73785E-03
 STRESS PERIOD TIME 6.04800E+05  10080.      168.00      7.0000     1.91650E-02
         TOTAL TIME 6.91200E+05  11520.      192.00      8.0000     2.19028E-02
1
 
 SOLVING FOR HEAD 

 OUTPUT CONTROL FOR STRESS PERIOD    2   TIME STEP   8
    SAVE HEAD FOR ALL LAYERS
    SAVE DRAWDOWN FOR ALL LAYERS
    SAVE BUDGET
    PRINT HEAD FOR ALL LAYERS
    PRINT BUDGET
 UBDSV1 SAVING "         STORAGE" ON UNIT  53 AT TIME STEP  8, STRESS PERIOD   2
 UBDSV2 SAVING "   CONSTANT HEAD" ON UNIT  53 AT TIME STEP  8, STRESS PERIOD   2
 UBDSV1 SAVING "FLOW RIGHT FACE " ON UNIT  53 AT TIME STEP  8, STRESS PERIOD   2
 UBDSV1 SAVING "FLOW FRONT FACE " ON UNIT  53 AT TIME STEP  8, STRESS PERIOD   2
1
              HEAD IN LAYER   1 AT END OF TIME STEP   8 IN STRESS PERIOD    2
  ---------------------------------------------------------------------------

            1           2           3           4           5           6           7           8           9          10
 ........................................................................................................................
   1    9.990       8.965       7.921       6.859       5.776       4.672       3.545       2.394       1.217      1.2194E-02
   2    9.990       8.965       7.921       6.859       5.776       4.672       3.545       2.394       1.217      1.2194E-02
   3    9.990       8.965       7.921       6.859       5.776       4.672       3.545       2.394       1.217      1.2194E-02
   4    9.990       8.965       7.921       6.859       5.776       4.672       3.545       2.394       1.217      1.2194E-02
   5    9.990       8.965       7.921       6.859       5.776       4.672       3.545       2.394       1.217      1.2194E-02
   6    9.990       8.965       7.921       6.859       5.776       4.672       3.545       2.394       1.217      1.2194E-02
   7    9.990       8.965       7.921       6.859       5.776       4.672       3.545       2.394       1.217      1.2194E-02
   8    9.990       8.965       7.921       6.859       5.776       4.672       3.545       2.394       1.217      1.2194E-02
   9    9.990       8.965       7.921       6.859       5.776       4.672       3.545       2.394       1.217      1.2194E-02
  10    9.990       8.965       7.921       6.859       5.776       4.672       3.545       2.394       1.217      1.2194E-02

 HEAD WILL BE SAVED ON UNIT   51 AT END OF TIME STEP   8, STRESS PERIOD    2

 DRAWDOWN WILL BE SAVED ON UNIT   52 AT END OF TIME STEP   8, STRESS PERIOD    2
1
  VOLUMETRIC BUDGET FOR ENTIRE MODEL AT END OF TIME STEP  8 IN STRESS PERIOD   2
  ------------------------------------------------------------------------------

     CUMULATIVE VOLUMES      L**3       RATES FOR THIS TIME STEP      L**3/T
     ------------------                 ------------------------

           IN:                                      IN:
           ---                                      ---
             STORAGE =       9.7656E-03               STORAGE =           0.0000
       CONSTANT HEAD =           0.0000         CONSTANT HEAD =           0.0000
               WELLS =           0.0000                 WELLS =           0.0000
     HEAD DEP BOUNDS =        5487.4106       HEAD DEP BOUNDS =         609.7147

            TOTAL IN =        5487.4204              TOTAL IN =         609.7147

          OUT:                                     OUT:
          ----                                     ----
             STORAGE =       4.2206E-02               STORAGE =       5.3978E-03
       CONSTANT HEAD =           0.0000         CONSTANT HEAD =           0.0000
               WELLS =           0.0000                 WELLS =           0.0000
     HEAD DEP BOUNDS =        5487.2046       HEAD DEP BOUNDS =         609.6888

           TOTAL OUT =        5487.2466             TOTAL OUT =         609.6942

            IN - OUT =           0.1738              IN - OUT =       2.0447E-02

 PERCENT DISCREPANCY =           0.00     PERCENT DISCREPANCY =           0.00






          TIME SUMMARY AT END OF TIME STEP   8 IN STRESS PERIOD    2
                    SECONDS     MINUTES      HOURS       DAYS        YEARS
                    -----------------------------------------------------------
   TIME STEP LENGTH  86400.      1440.0      24.000      1.0000     2.73785E-03
 STRESS PERIOD TIME 6.91200E+05  11520.      192.00      8.0000     2.19028E-02
         TOTAL TIME 7.77600E+05  12960.      216.00      9.0000     2.46407E-02
1
 
 SOLVING FOR HEAD 

 OUTPUT CONTROL FOR STRESS PERIOD    2   TIME STEP   9
    SAVE HEAD FOR ALL LAYERS
    SAVE DRAWDOWN FOR ALL LAYERS
    SAVE BUDGET
    PRINT HEAD FOR ALL LAYERS
    PRINT BUDGET
 UBDSV1 SAVING "         STORAGE" ON UNIT  53 AT TIME STEP  9, STRESS PERIOD   2
 UBDSV2 SAVING "   CONSTANT HEAD" ON UNIT  53 AT TIME STEP  9, STRESS PERIOD   2
 UBDSV1 SAVING "FLOW RIGHT FACE " ON UNIT  53 AT TIME STEP  9, STRESS PERIOD   2
 UBDSV1 SAVING "FLOW FRONT FACE " ON UNIT  53 AT TIME STEP  9, STRESS PERIOD   2
1
              HEAD IN LAYER   1 AT END OF TIME STEP   9 IN STRESS PERIOD    2
  ---------------------------------------------------------------------------

            1           2           3           4           5           6           7           8           9          10
 ........................................................................................................................
   1    9.990       8.965       7.921       6.859       5.776       4.672       3.545       2.394       1.217      1.2194E-02
   2    9.990       8.965       7.921       6.859       5.776       4.672       3.545       2.394       1.217      1.2194E-02
   3    9.990       8.965       7.921       6.859       5.776       4.672       3.545       2.394       1.217      1.2194E-02
   4    9.990       8.965       7.921       6.859       5.776       4.672       3.545       2.394       1.217      1.2194E-02
   5    9.990       8.965       7.921       6.859       5.776       4.672       3.545       2.394       1.217      1.2194E-02
   6    9.990       8.965       7.921       6.859       5.776       4.672       3.545       2.394       1.217      1.2194E-02
   7    9.990       8.965       7.921       6.859       5.776       4.672       3.545       2.394       1.217      1.2194E-02
   8    9.990       8.965       7.921       6.859       5.776       4.672       3.545       2.394       1.217      1.2194E-02
   9    9.990       8.965       7.921       6.859       5.776       4.672       3.545       2.394       1.217      1.2194E-02
  10    9.990       8.965       7.921       6.859       5.776       4.672       3.545       2.394       1.217      1.2194E-02

 HEAD WILL BE SAVED ON UNIT   51 AT END OF TIME STEP   9, STRESS PERIOD    2

 DRAWDOWN WILL BE SAVED ON UNIT   52 AT END OF TIME STEP   9, STRESS PERIOD    2
1
  VOLUMETRIC BUDGET FOR ENTIRE MODEL AT END OF TIME STEP  9 IN STRESS PERIOD   2
  ------------------------------------------------------------------------------

     CUMULATIVE VOLUMES      L**3       RATES FOR THIS TIME STEP      L**3/T
     ------------------                 ------------------------

           IN:                                      IN:
           ---                                      ---
             STORAGE =       9.7656E-03               STORAGE =           0.0000
       CONSTANT HEAD =           0.0000         CONSTANT HEAD =           0.0000
               WELLS =           0.0000                 WELLS =           0.0000
     HEAD DEP BOUNDS =        6097.1255       HEAD DEP BOUNDS =         609.7147

            TOTAL IN =        6097.1353              TOTAL IN =         609.7147

          OUT:                                     OUT:
          ----                                     ----
             STORAGE =       4.7604E-02               STORAGE =       5.3978E-03
       CONSTANT HEAD =           0.0000         CONSTANT HEAD =           0.0000
               WELLS =           0.0000                 WELLS =           0.0000
     HEAD DEP BOUNDS =        6096.8936       HEAD DEP BOUNDS =         609.6888

           TOTAL OUT =        6096.9409             TOTAL OUT =         609.6942

            IN - OUT =           0.1943              IN - OUT =       2.0447E-02

 PERCENT DISCREPANCY =           0.00     PERCENT DISCREPANCY =           0.00






          TIME SUMMARY AT END OF TIME STEP   9 IN STRESS PERIOD    2
                    SECONDS     MINUTES      HOURS       DAYS        YEARS
                    -----------------------------------------------------------
   TIME STEP LENGTH  86400.      1440.0      24.000      1.0000     2.73785E-03
 STRESS PERIOD TIME 7.77600E+05  12960.      216.00      9.0000     2.46407E-02
         TOTAL TIME 8.64000E+05  14400.      240.00      10.000     2.73785E-02
1
 
 SOLVING FOR HEAD 

 OUTPUT CONTROL FOR STRESS PERIOD    2   TIME STEP  10
    SAVE HEAD FOR ALL LAYERS
    SAVE DRAWDOWN FOR ALL LAYERS
    SAVE BUDGET
    PRINT HEAD FOR ALL LAYERS
    PRINT BUDGET
 UBDSV1 SAVING "         STORAGE" ON UNIT  53 AT TIME STEP 10, STRESS PERIOD   2
 UBDSV2 SAVING "   CONSTANT HEAD" ON UNIT  53 AT TIME STEP 10, STRESS PERIOD   2
 UBDSV1 SAVING "FLOW RIGHT FACE " ON UNIT  53 AT TIME STEP 10, STRESS PERIOD   2
 UBDSV1 SAVING "FLOW FRONT FACE " ON UNIT  53 AT TIME STEP 10, STRESS PERIOD   2
1
              HEAD IN LAYER   1 AT END OF TIME STEP  10 IN STRESS PERIOD    2
  ---------------------------------------------------------------------------

            1           2           3           4           5           6           7           8           9          10
 ........................................................................................................................
   1    9.990       8.965       7.921       6.859       5.776       4.672       3.545       2.394       1.217      1.2194E-02
   2    9.990       8.965       7.921       6.859       5.776       4.672       3.545       2.394       1.217      1.2194E-02
   3    9.990       8.965       7.921       6.859       5.776       4.672       3.545       2.394       1.217      1.2194E-02
   4    9.990       8.965       7.921       6.859       5.776       4.672       3.545       2.394       1.217      1.2194E-02
   5    9.990       8.965       7.921       6.859       5.776       4.672       3.545       2.394       1.217      1.2194E-02
   6    9.990       8.965       7.921       6.859       5.776       4.672       3.545       2.394       1.217      1.2194E-02
   7    9.990       8.965       7.921       6.859       5.776       4.672       3.545       2.394       1.217      1.2194E-02
   8    9.990       8.965       7.921       6.859       5.776       4.672       3.545       2.394       1.217      1.2194E-02
   9    9.990       8.965       7.921       6.859       5.776       4.672       3.545       2.394       1.217      1.2194E-02
  10    9.990       8.965       7.921       6.859       5.776       4.672       3.545       2.394       1.217      1.2194E-02

 HEAD WILL BE SAVED ON UNIT   51 AT END OF TIME STEP  10, STRESS PERIOD    2

 DRAWDOWN WILL BE SAVED ON UNIT   52 AT END OF TIME STEP  10, STRESS PERIOD    2
1
  VOLUMETRIC BUDGET FOR ENTIRE MODEL AT END OF TIME STEP 10 IN STRESS PERIOD   2
  ------------------------------------------------------------------------------

     CUMULATIVE VOLUMES      L**3       RATES FOR THIS TIME STEP      L**3/T
     ------------------                 ------------------------

           IN:                                      IN:
           ---                                      ---
             STORAGE =       9.7656E-03               STORAGE =           0.0000
       CONSTANT HEAD =           0.0000         CONSTANT HEAD =           0.0000
               WELLS =           0.0000                 WELLS =           0.0000
     HEAD DEP BOUNDS =        6706.8403       HEAD DEP BOUNDS =         609.7147

            TOTAL IN =        6706.8501              TOTAL IN =         609.7147

          OUT:                                     OUT:
          ----                                     ----
             STORAGE =       5.3001E-02               STORAGE =       5.3978E-03
       CONSTANT HEAD =           0.0000         CONSTANT HEAD =           0.0000
               WELLS =           0.0000                 WELLS =           0.0000
     HEAD DEP BOUNDS =        6706.5825       HEAD DEP BOUNDS =         609.6888

           TOTAL OUT =        6706.6357             TOTAL OUT =         609.6942

            IN - OUT =           0.2144              IN - OUT =       2.0447E-02

 PERCENT DISCREPANCY =           0.00     PERCENT DISCREPANCY =           0.00






          TIME SUMMARY AT END OF TIME STEP  10 IN STRESS PERIOD    2
                    SECONDS     MINUTES      HOURS       DAYS        YEARS
                    -----------------------------------------------------------
   TIME STEP LENGTH  86400.      1440.0      24.000      1.0000     2.73785E-03
 STRESS PERIOD TIME 8.64000E+05  14400.      240.00      10.000     2.73785E-02
         TOTAL TIME 9.50400E+05  15840.      264.00      11.000     3.01164E-02
1
 
 SOLVING FOR HEAD 

 OUTPUT CONTROL FOR STRESS PERIOD    2   TIME STEP  11
    SAVE HEAD FOR ALL LAYERS
    SAVE DRAWDOWN FOR ALL LAYERS
    SAVE BUDGET
    PRINT HEAD FOR ALL LAYERS
    PRINT BUDGET
 UBDSV1 SAVING "         STORAGE" ON UNIT  53 AT TIME STEP 11, STRESS PERIOD   2
 UBDSV2 SAVING "   CONSTANT HEAD" ON UNIT  53 AT TIME STEP 11, STRESS PERIOD   2
 UBDSV1 SAVING "FLOW RIGHT FACE " ON UNIT  53 AT TIME STEP 11, STRESS PERIOD   2
 UBDSV1 SAVING "FLOW FRONT FACE " ON UNIT  53 AT TIME STEP 11, STRESS PERIOD   2
1
              HEAD IN LAYER   1 AT END OF TIME STEP  11 IN STRESS PERIOD    2
  ---------------------------------------------------------------------------

            1           2           3           4           5           6           7           8           9          10
 ........................................................................................................................
   1    9.990       8.965       7.921       6.859       5.776       4.672       3.545       2.394       1.217      1.2194E-02
   2    9.990       8.965       7.921       6.859       5.776       4.672       3.545       2.394       1.217      1.2194E-02
   3    9.990       8.965       7.921       6.859       5.776       4.672       3.545       2.394       1.217      1.2194E-02
   4    9.990       8.965       7.921       6.859       5.776       4.672       3.545       2.394       1.217      1.2194E-02
   5    9.990       8.965       7.921       6.859       5.776       4.672       3.545       2.394       1.217      1.2194E-02
   6    9.990       8.965       7.921       6.859       5.776       4.672       3.545       2.394       1.217      1.2194E-02
   7    9.990       8.965       7.921       6.859       5.776       4.672       3.545       2.394       1.217      1.2194E-02
   8    9.990       8.965       7.921       6.859       5.776       4.672       3.545       2.394       1.217      1.2194E-02
   9    9.990       8.965       7.921       6.859       5.776       4.672       3.545       2.394       1.217      1.2194E-02
  10    9.990       8.965       7.921       6.859       5.776       4.672       3.545       2.394       1.217      1.2194E-02

 HEAD WILL BE SAVED ON UNIT   51 AT END OF TIME STEP  11, STRESS PERIOD    2

 DRAWDOWN WILL BE SAVED ON UNIT   52 AT END OF TIME STEP  11, STRESS PERIOD    2
1
  VOLUMETRIC BUDGET FOR ENTIRE MODEL AT END OF TIME STEP 11 IN STRESS PERIOD   2
  ------------------------------------------------------------------------------

     CUMULATIVE VOLUMES      L**3       RATES FOR THIS TIME STEP      L**3/T
     ------------------                 ------------------------

           IN:                                      IN:
           ---                                      ---
             STORAGE =       9.7656E-03               STORAGE =           0.0000
       CONSTANT HEAD =           0.0000         CONSTANT HEAD =           0.0000
               WELLS =           0.0000                 WELLS =           0.0000
     HEAD DEP BOUNDS =        7316.5552       HEAD DEP BOUNDS =         609.7147

            TOTAL IN =        7316.5649              TOTAL IN =         609.7147

          OUT:                                     OUT:
          ----                                     ----
             STORAGE =       5.8399E-02               STORAGE =       5.3978E-03
       CONSTANT HEAD =           0.0000         CONSTANT HEAD =           0.0000
               WELLS =           0.0000                 WELLS =           0.0000
     HEAD DEP BOUNDS =        7316.2715       HEAD DEP BOUNDS =         609.6888

           TOTAL OUT =        7316.3301             TOTAL OUT =         609.6942

            IN - OUT =           0.2349              IN - OUT =       2.0447E-02

 PERCENT DISCREPANCY =           0.00     PERCENT DISCREPANCY =           0.00






          TIME SUMMARY AT END OF TIME STEP  11 IN STRESS PERIOD    2
                    SECONDS     MINUTES      HOURS       DAYS        YEARS
                    -----------------------------------------------------------
   TIME STEP LENGTH  86400.      1440.0      24.000      1.0000     2.73785E-03
 STRESS PERIOD TIME 9.50400E+05  15840.      264.00      11.000     3.01164E-02
         TOTAL TIME 1.03680E+06  17280.      288.00      12.000     3.28542E-02
1
 
 SOLVING FOR HEAD 

 OUTPUT CONTROL FOR STRESS PERIOD    2   TIME STEP  12
    SAVE HEAD FOR ALL LAYERS
    SAVE DRAWDOWN FOR ALL LAYERS
    SAVE BUDGET
    PRINT HEAD FOR ALL LAYERS
    PRINT BUDGET
 UBDSV1 SAVING "         STORAGE" ON UNIT  53 AT TIME STEP 12, STRESS PERIOD   2
 UBDSV2 SAVING "   CONSTANT HEAD" ON UNIT  53 AT TIME STEP 12, STRESS PERIOD   2
 UBDSV1 SAVING "FLOW RIGHT FACE " ON UNIT  53 AT TIME STEP 12, STRESS PERIOD   2
 UBDSV1 SAVING "FLOW FRONT FACE " ON UNIT  53 AT TIME STEP 12, STRESS PERIOD   2
1
              HEAD IN LAYER   1 AT END OF TIME STEP  12 IN STRESS PERIOD    2
  ---------------------------------------------------------------------------

            1           2           3           4           5           6           7           8           9          10
 ........................................................................................................................
   1    9.990       8.965       7.921       6.859       5.776       4.672       3.545       2.394       1.217      1.2194E-02
   2    9.990       8.965       7.921       6.859       5.776       4.672       3.545       2.394       1.217      1.2194E-02
   3    9.990       8.965       7.921       6.859       5.776       4.672       3.545       2.394       1.217      1.2194E-02
   4    9.990       8.965       7.921       6.859       5.776       4.672       3.545       2.394       1.217      1.2194E-02
   5    9.990       8.965       7.921       6.859       5.776       4.672       3.545       2.394       1.217      1.2194E-02
   6    9.990       8.965       7.921       6.859       5.776       4.672       3.545       2.394       1.217      1.2194E-02
   7    9.990       8.965       7.921       6.859       5.776       4.672       3.545       2.394       1.217      1.2194E-02
   8    9.990       8.965       7.921       6.859       5.776       4.672       3.545       2.394       1.217      1.2194E-02
   9    9.990       8.965       7.921       6.859       5.776       4.672       3.545       2.394       1.217      1.2194E-02
  10    9.990       8.965       7.921       6.859       5.776       4.672       3.545       2.394       1.217      1.2194E-02

 HEAD WILL BE SAVED ON UNIT   51 AT END OF TIME STEP  12, STRESS PERIOD    2

 DRAWDOWN WILL BE SAVED ON UNIT   52 AT END OF TIME STEP  12, STRESS PERIOD    2
1
  VOLUMETRIC BUDGET FOR ENTIRE MODEL AT END OF TIME STEP 12 IN STRESS PERIOD   2
  ------------------------------------------------------------------------------

     CUMULATIVE VOLUMES      L**3       RATES FOR THIS TIME STEP      L**3/T
     ------------------                 ------------------------

           IN:                                      IN:
           ---                                      ---
             STORAGE =       9.7656E-03               STORAGE =           0.0000
       CONSTANT HEAD =           0.0000         CONSTANT HEAD =           0.0000
               WELLS =           0.0000                 WELLS =           0.0000
     HEAD DEP BOUNDS =        7926.2700       HEAD DEP BOUNDS =         609.7147

            TOTAL IN =        7926.2798              TOTAL IN =         609.7147

          OUT:                                     OUT:
          ----                                     ----
             STORAGE =       6.3797E-02               STORAGE =       5.3978E-03
       CONSTANT HEAD =           0.0000         CONSTANT HEAD =           0.0000
               WELLS =           0.0000                 WELLS =           0.0000
     HEAD DEP BOUNDS =        7925.9604       HEAD DEP BOUNDS =         609.6888

           TOTAL OUT =        7926.0244             TOTAL OUT =         609.6942

            IN - OUT =           0.2554              IN - OUT =       2.0447E-02

 PERCENT DISCREPANCY =           0.00     PERCENT DISCREPANCY =           0.00






          TIME SUMMARY AT END OF TIME STEP  12 IN STRESS PERIOD    2
                    SECONDS     MINUTES      HOURS       DAYS        YEARS
                    -----------------------------------------------------------
   TIME STEP LENGTH  86400.      1440.0      24.000      1.0000     2.73785E-03
 STRESS PERIOD TIME 1.03680E+06  17280.      288.00      12.000     3.28542E-02
         TOTAL TIME 1.12320E+06  18720.      312.00      13.000     3.55921E-02
1
 
 SOLVING FOR HEAD 

 OUTPUT CONTROL FOR STRESS PERIOD    2   TIME STEP  13
    SAVE HEAD FOR ALL LAYERS
    SAVE DRAWDOWN FOR ALL LAYERS
    SAVE BUDGET
    PRINT HEAD FOR ALL LAYERS
    PRINT BUDGET
 UBDSV1 SAVING "         STORAGE" ON UNIT  53 AT TIME STEP 13, STRESS PERIOD   2
 UBDSV2 SAVING "   CONSTANT HEAD" ON UNIT  53 AT TIME STEP 13, STRESS PERIOD   2
 UBDSV1 SAVING "FLOW RIGHT FACE " ON UNIT  53 AT TIME STEP 13, STRESS PERIOD   2
 UBDSV1 SAVING "FLOW FRONT FACE " ON UNIT  53 AT TIME STEP 13, STRESS PERIOD   2
1
              HEAD IN LAYER   1 AT END OF TIME STEP  13 IN STRESS PERIOD    2
  ---------------------------------------------------------------------------

            1           2           3           4           5           6           7           8           9          10
 ........................................................................................................................
   1    9.990       8.965       7.921       6.859       5.776       4.672       3.545       2.394       1.217      1.2194E-02
   2    9.990       8.965       7.921       6.859       5.776       4.672       3.545       2.394       1.217      1.2194E-02
   3    9.990       8.965       7.921       6.859       5.776       4.672       3.545       2.394       1.217      1.2194E-02
   4    9.990       8.965       7.921       6.859       5.776       4.672       3.545       2.394       1.217      1.2194E-02
   5    9.990       8.965       7.921       6.859       5.776       4.672       3.545       2.394       1.217      1.2194E-02
   6    9.990       8.965       7.921       6.859       5.776       4.672       3.545       2.394       1.217      1.2194E-02
   7    9.990       8.965       7.921       6.859       5.776       4.672       3.545       2.394       1.217      1.2194E-02
   8    9.990       8.965       7.921       6.859       5.776       4.672       3.545       2.394       1.217      1.2194E-02
   9    9.990       8.965       7.921       6.859       5.776       4.672       3.545       2.394       1.217      1.2194E-02
  10    9.990       8.965       7.921       6.859       5.776       4.672       3.545       2.394       1.217      1.2194E-02

 HEAD WILL BE SAVED ON UNIT   51 AT END OF TIME STEP  13, STRESS PERIOD    2

 DRAWDOWN WILL BE SAVED ON UNIT   52 AT END OF TIME STEP  13, STRESS PERIOD    2
1
  VOLUMETRIC BUDGET FOR ENTIRE MODEL AT END OF TIME STEP 13 IN STRESS PERIOD   2
  ------------------------------------------------------------------------------

     CUMULATIVE VOLUMES      L**3       RATES FOR THIS TIME STEP      L**3/T
     ------------------                 ------------------------

           IN:                                      IN:
           ---                                      ---
             STORAGE =       9.7656E-03               STORAGE =           0.0000
       CONSTANT HEAD =           0.0000         CONSTANT HEAD =           0.0000
               WELLS =           0.0000                 WELLS =           0.0000
     HEAD DEP BOUNDS =        8535.9844       HEAD DEP BOUNDS =         609.7147

            TOTAL IN =        8535.9941              TOTAL IN =         609.7147

          OUT:                                     OUT:
          ----                                     ----
             STORAGE =       6.9195E-02               STORAGE =       5.3978E-03
       CONSTANT HEAD =           0.0000         CONSTANT HEAD =           0.0000
               WELLS =           0.0000                 WELLS =           0.0000
     HEAD DEP BOUNDS =        8535.6494       HEAD DEP BOUNDS =         609.6888

           TOTAL OUT =        8535.7188             TOTAL OUT =         609.6942

            IN - OUT =           0.2754              IN - OUT =       2.0447E-02

 PERCENT DISCREPANCY =           0.00     PERCENT DISCREPANCY =           0.00






          TIME SUMMARY AT END OF TIME STEP  13 IN STRESS PERIOD    2
                    SECONDS     MINUTES      HOURS       DAYS        YEARS
                    -----------------------------------------------------------
   TIME STEP LENGTH  86400.      1440.0      24.000      1.0000     2.73785E-03
 STRESS PERIOD TIME 1.12320E+06  18720.      312.00      13.000     3.55921E-02
         TOTAL TIME 1.20960E+06  20160.      336.00      14.000     3.83299E-02
1
 
 SOLVING FOR HEAD 

 OUTPUT CONTROL FOR STRESS PERIOD    2   TIME STEP  14
    SAVE HEAD FOR ALL LAYERS
    SAVE DRAWDOWN FOR ALL LAYERS
    SAVE BUDGET
    PRINT HEAD FOR ALL LAYERS
    PRINT BUDGET
 UBDSV1 SAVING "         STORAGE" ON UNIT  53 AT TIME STEP 14, STRESS PERIOD   2
 UBDSV2 SAVING "   CONSTANT HEAD" ON UNIT  53 AT TIME STEP 14, STRESS PERIOD   2
 UBDSV1 SAVING "FLOW RIGHT FACE " ON UNIT  53 AT TIME STEP 14, STRESS PERIOD   2
 UBDSV1 SAVING "FLOW FRONT FACE " ON UNIT  53 AT TIME STEP 14, STRESS PERIOD   2
1
              HEAD IN LAYER   1 AT END OF TIME STEP  14 IN STRESS PERIOD    2
  ---------------------------------------------------------------------------

            1           2           3           4           5           6           7           8           9          10
 ........................................................................................................................
   1    9.990       8.965       7.921       6.859       5.776       4.672       3.545       2.394       1.217      1.2194E-02
   2    9.990       8.965       7.921       6.859       5.776       4.672       3.545       2.394       1.217      1.2194E-02
   3    9.990       8.965       7.921       6.859       5.776       4.672       3.545       2.394       1.217      1.2194E-02
   4    9.990       8.965       7.921       6.859       5.776       4.672       3.545       2.394       1.217      1.2194E-02
   5    9.990       8.965       7.921       6.859       5.776       4.672       3.545       2.394       1.217      1.2194E-02
   6    9.990       8.965       7.921       6.859       5.776       4.672       3.545       2.394       1.217      1.2194E-02
   7    9.990       8.965       7.921       6.859       5.776       4.672       3.545       2.394       1.217      1.2194E-02
   8    9.990       8.965       7.921       6.859       5.776       4.672       3.545       2.394       1.217      1.2194E-02
   9    9.990       8.965       7.921       6.859       5.776       4.672       3.545       2.394       1.217      1.2194E-02
  10    9.990       8.965       7.921       6.859       5.776       4.672       3.545       2.394       1.217      1.2194E-02

 HEAD WILL BE SAVED ON UNIT   51 AT END OF TIME STEP  14, STRESS PERIOD    2

 DRAWDOWN WILL BE SAVED ON UNIT   52 AT END OF TIME STEP  14, STRESS PERIOD    2
1
  VOLUMETRIC BUDGET FOR ENTIRE MODEL AT END OF TIME STEP 14 IN STRESS PERIOD   2
  ------------------------------------------------------------------------------

     CUMULATIVE VOLUMES      L**3       RATES FOR THIS TIME STEP      L**3/T
     ------------------                 ------------------------

           IN:                                      IN:
           ---                                      ---
             STORAGE =       9.7656E-03               STORAGE =           0.0000
       CONSTANT HEAD =           0.0000         CONSTANT HEAD =           0.0000
               WELLS =           0.0000                 WELLS =           0.0000
     HEAD DEP BOUNDS =        9145.6992       HEAD DEP BOUNDS =         609.7147

            TOTAL IN =        9145.7090              TOTAL IN =         609.7147

          OUT:                                     OUT:
          ----                                     ----
             STORAGE =       7.4593E-02               STORAGE =       5.3978E-03
       CONSTANT HEAD =           0.0000         CONSTANT HEAD =           0.0000
               WELLS =           0.0000                 WELLS =           0.0000
     HEAD DEP BOUNDS =        9145.3379       HEAD DEP BOUNDS =         609.6888

           TOTAL OUT =        9145.4121             TOTAL OUT =         609.6942

            IN - OUT =           0.2969              IN - OUT =       2.0447E-02

 PERCENT DISCREPANCY =           0.00     PERCENT DISCREPANCY =           0.00






          TIME SUMMARY AT END OF TIME STEP  14 IN STRESS PERIOD    2
                    SECONDS     MINUTES      HOURS       DAYS        YEARS
                    -----------------------------------------------------------
   TIME STEP LENGTH  86400.      1440.0      24.000      1.0000     2.73785E-03
 STRESS PERIOD TIME 1.20960E+06  20160.      336.00      14.000     3.83299E-02
         TOTAL TIME 1.29600E+06  21600.      360.00      15.000     4.10678E-02
1
 
 SOLVING FOR HEAD 

 OUTPUT CONTROL FOR STRESS PERIOD    2   TIME STEP  15
    SAVE HEAD FOR ALL LAYERS
    SAVE DRAWDOWN FOR ALL LAYERS
    SAVE BUDGET
    PRINT HEAD FOR ALL LAYERS
    PRINT BUDGET
 UBDSV1 SAVING "         STORAGE" ON UNIT  53 AT TIME STEP 15, STRESS PERIOD   2
 UBDSV2 SAVING "   CONSTANT HEAD" ON UNIT  53 AT TIME STEP 15, STRESS PERIOD   2
 UBDSV1 SAVING "FLOW RIGHT FACE " ON UNIT  53 AT TIME STEP 15, STRESS PERIOD   2
 UBDSV1 SAVING "FLOW FRONT FACE " ON UNIT  53 AT TIME STEP 15, STRESS PERIOD   2
1
              HEAD IN LAYER   1 AT END OF TIME STEP  15 IN STRESS PERIOD    2
  ---------------------------------------------------------------------------

            1           2           3           4           5           6           7           8           9          10
 ........................................................................................................................
   1    9.990       8.965       7.921       6.859       5.776       4.672       3.545       2.394       1.217      1.2194E-02
   2    9.990       8.965       7.921       6.859       5.776       4.672       3.545       2.394       1.217      1.2194E-02
   3    9.990       8.965       7.921       6.859       5.776       4.672       3.545       2.394       1.217      1.2194E-02
   4    9.990       8.965       7.921       6.859       5.776       4.672       3.545       2.394       1.217      1.2194E-02
   5    9.990       8.965       7.921       6.859       5.776       4.672       3.545       2.394       1.217      1.2194E-02
   6    9.990       8.965       7.921       6.859       5.776       4.672       3.545       2.394       1.217      1.2194E-02
   7    9.990       8.965       7.921       6.859       5.776       4.672       3.545       2.394       1.217      1.2194E-02
   8    9.990       8.965       7.921       6.859       5.776       4.672       3.545       2.394       1.217      1.2194E-02
   9    9.990       8.965       7.921       6.859       5.776       4.672       3.545       2.394       1.217      1.2194E-02
  10    9.990       8.965       7.921       6.859       5.776       4.672       3.545       2.394       1.217      1.2194E-02

 HEAD WILL BE SAVED ON UNIT   51 AT END OF TIME STEP  15, STRESS PERIOD    2

 DRAWDOWN WILL BE SAVED ON UNIT   52 AT END OF TIME STEP  15, STRESS PERIOD    2
1
  VOLUMETRIC BUDGET FOR ENTIRE MODEL AT END OF TIME STEP 15 IN STRESS PERIOD   2
  ------------------------------------------------------------------------------

     CUMULATIVE VOLUMES      L**3       RATES FOR THIS TIME STEP      L**3/T
     ------------------                 ------------------------

           IN:                                      IN:
           ---                                      ---
             STORAGE =       9.7656E-03               STORAGE =           0.0000
       CONSTANT HEAD =           0.0000         CONSTANT HEAD =           0.0000
               WELLS =           0.0000                 WELLS =           0.0000
     HEAD DEP BOUNDS =        9755.4141       HEAD DEP BOUNDS =         609.7147

            TOTAL IN =        9755.4238              TOTAL IN =         609.7147

          OUT:                                     OUT:
          ----                                     ----
             STORAGE =       7.9990E-02               STORAGE =       5.3978E-03
       CONSTANT HEAD =           0.0000         CONSTANT HEAD =           0.0000
               WELLS =           0.0000                 WELLS =           0.0000
     HEAD DEP BOUNDS =        9755.0264       HEAD DEP BOUNDS =         609.6888

           TOTAL OUT =        9755.1064             TOTAL OUT =         609.6942

            IN - OUT =           0.3174              IN - OUT =       2.0447E-02

 PERCENT DISCREPANCY =           0.00     PERCENT DISCREPANCY =           0.00






          TIME SUMMARY AT END OF TIME STEP  15 IN STRESS PERIOD    2
                    SECONDS     MINUTES      HOURS       DAYS        YEARS
                    -----------------------------------------------------------
   TIME STEP LENGTH  86400.      1440.0      24.000      1.0000     2.73785E-03
 STRESS PERIOD TIME 1.29600E+06  21600.      360.00      15.000     4.10678E-02
         TOTAL TIME 1.38240E+06  23040.      384.00      16.000     4.38056E-02
1
 
 SOLVING FOR HEAD 

 OUTPUT CONTROL FOR STRESS PERIOD    2   TIME STEP  16
    SAVE HEAD FOR ALL LAYERS
    SAVE DRAWDOWN FOR ALL LAYERS
    SAVE BUDGET
    PRINT HEAD FOR ALL LAYERS
    PRINT BUDGET
 UBDSV1 SAVING "         STORAGE" ON UNIT  53 AT TIME STEP 16, STRESS PERIOD   2
 UBDSV2 SAVING "   CONSTANT HEAD" ON UNIT  53 AT TIME STEP 16, STRESS PERIOD   2
 UBDSV1 SAVING "FLOW RIGHT FACE " ON UNIT  53 AT TIME STEP 16, STRESS PERIOD   2
 UBDSV1 SAVING "FLOW FRONT FACE " ON UNIT  53 AT TIME STEP 16, STRESS PERIOD   2
1
              HEAD IN LAYER   1 AT END OF TIME STEP  16 IN STRESS PERIOD    2
  ---------------------------------------------------------------------------

            1           2           3           4           5           6           7           8           9          10
[...]
   8    9.989       8.884       7.756       6.613       5.485       4.415       3.359       2.280       1.164      1.1658E-02
   9    9.989       8.915       7.823       6.720       5.617       4.527       3.435       2.324       1.183      1.1853E-02
  10    9.990       8.930       7.855       6.766       5.672       4.576       3.470       2.345       1.193      1.1951E-02

 HEAD WILL BE SAVED ON UNIT   51 AT END OF TIME STEP  96, STRESS PERIOD    3

 DRAWDOWN WILL BE SAVED ON UNIT   52 AT END OF TIME STEP  96, STRESS PERIOD    3
1
  VOLUMETRIC BUDGET FOR ENTIRE MODEL AT END OF TIME STEP 96 IN STRESS PERIOD   3
  ------------------------------------------------------------------------------

     CUMULATIVE VOLUMES      L**3       RATES FOR THIS TIME STEP      L**3/T
     ------------------                 ------------------------

           IN:                                      IN:
           ---                                      ---
             STORAGE =       24793.8770               STORAGE =         197.1082
       CONSTANT HEAD =           0.0000         CONSTANT HEAD =           0.0000
               WELLS =           0.0000                 WELLS =           0.0000
     HEAD DEP BOUNDS =      122893.0000       HEAD DEP BOUNDS =         676.5453

            TOTAL IN =      147686.8750              TOTAL IN =         873.6536

          OUT:                                     OUT:
          ----                                     ----
             STORAGE =           0.5783               STORAGE =           0.0000
       CONSTANT HEAD =           0.0000         CONSTANT HEAD =           0.0000
               WELLS =       28800.0000                 WELLS =         300.0000
     HEAD DEP BOUNDS =      118884.2188       HEAD DEP BOUNDS =         573.6643

           TOTAL OUT =      147684.7969             TOTAL OUT =         873.6643

            IN - OUT =           2.0781              IN - OUT =      -1.0742E-02

 PERCENT DISCREPANCY =           0.00     PERCENT DISCREPANCY =           0.00






          TIME SUMMARY AT END OF TIME STEP  96 IN STRESS PERIOD    3
                    SECONDS     MINUTES      HOURS       DAYS        YEARS
                    -----------------------------------------------------------
   TIME STEP LENGTH  86400.      1440.0      24.000      1.0000     2.73785E-03
 STRESS PERIOD TIME 8.29440E+06 1.38240E+05  2304.0      96.000     0.26283    
         TOTAL TIME 1.70208E+07 2.83680E+05  4728.0      197.00     0.53936    
1
 
 SOLVING FOR HEAD 

 OUTPUT CONTROL FOR STRESS PERIOD    3   TIME STEP  97
    SAVE HEAD FOR ALL LAYERS
    SAVE DRAWDOWN FOR ALL LAYERS
    SAVE BUDGET
    PRINT HEAD FOR ALL LAYERS
    PRINT BUDGET
 UBDSV1 SAVING "         STORAGE" ON UNIT  53 AT TIME STEP 97, STRESS PERIOD   3
 UBDSV2 SAVING "   CONSTANT HEAD" ON UNIT  53 AT TIME STEP 97, STRESS PERIOD   3
 UBDSV1 SAVING "FLOW RIGHT FACE " ON UNIT  53 AT TIME STEP 97, STRESS PERIOD   3
 UBDSV1 SAVING "FLOW FRONT FACE " ON UNIT  53 AT TIME STEP 97, STRESS PERIOD   3
1
              HEAD IN LAYER   1 AT END OF TIME STEP  97 IN STRESS PERIOD    3
  ---------------------------------------------------------------------------

            1           2           3           4           5           6           7           8           9          10
 ........................................................................................................................
   1    9.989       8.896       7.786       6.667       5.558       4.472       3.392       2.296       1.170      1.1717E-02
   2    9.989       8.874       7.736       6.586       5.455       4.386       3.336       2.265       1.156      1.1583E-02
   3    9.989       8.832       7.637       6.406       5.203       4.198       3.225       2.208       1.133      1.1345E-02
   4    9.988       8.782       7.504       6.110       4.654       3.889       3.077       2.142       1.108      1.1091E-02
   5    9.988       8.753       7.406       5.768       3.290       3.533       2.969       2.105       1.095      1.0969E-02
   6    9.988       8.784       7.507       6.114       4.659       3.893       3.081       2.144       1.109      1.1103E-02
   7    9.989       8.836       7.645       6.417       5.215       4.210       3.234       2.214       1.136      1.1376E-02
   8    9.989       8.883       7.754       6.610       5.482       4.412       3.356       2.278       1.163      1.1648E-02
   9    9.989       8.915       7.822       6.717       5.615       4.524       3.433       2.322       1.182      1.1845E-02
  10    9.989       8.930       7.853       6.765       5.670       4.574       3.468       2.343       1.192      1.1944E-02

 HEAD WILL BE SAVED ON UNIT   51 AT END OF TIME STEP  97, STRESS PERIOD    3

 DRAWDOWN WILL BE SAVED ON UNIT   52 AT END OF TIME STEP  97, STRESS PERIOD    3
1
  VOLUMETRIC BUDGET FOR ENTIRE MODEL AT END OF TIME STEP 97 IN STRESS PERIOD   3
  ------------------------------------------------------------------------------

     CUMULATIVE VOLUMES      L**3       RATES FOR THIS TIME STEP      L**3/T
     ------------------                 ------------------------

           IN:                                      IN:
           ---                                      ---
             STORAGE =       24989.7344               STORAGE =         195.8572
       CONSTANT HEAD =           0.0000         CONSTANT HEAD =           0.0000
               WELLS =           0.0000                 WELLS =           0.0000
     HEAD DEP BOUNDS =      123570.2500       HEAD DEP BOUNDS =         677.2489

            TOTAL IN =      148559.9844              TOTAL IN =         873.1061

          OUT:                                     OUT:
          ----                                     ----
             STORAGE =           0.5783               STORAGE =           0.0000
       CONSTANT HEAD =           0.0000         CONSTANT HEAD =           0.0000
               WELLS =       29100.0000                 WELLS =         300.0000
     HEAD DEP BOUNDS =      119457.3203       HEAD DEP BOUNDS =         573.1035

           TOTAL OUT =      148557.9062             TOTAL OUT =         873.1035

            IN - OUT =           2.0781              IN - OUT =       2.5635E-03

 PERCENT DISCREPANCY =           0.00     PERCENT DISCREPANCY =           0.00






          TIME SUMMARY AT END OF TIME STEP  97 IN STRESS PERIOD    3
                    SECONDS     MINUTES      HOURS       DAYS        YEARS
                    -----------------------------------------------------------
   TIME STEP LENGTH  86400.      1440.0      24.000      1.0000     2.73785E-03
 STRESS PERIOD TIME 8.38080E+06 1.39680E+05  2328.0      97.000     0.26557    
         TOTAL TIME 1.71072E+07 2.85120E+05  4752.0      198.00     0.54209    
1
 
 SOLVING FOR HEAD 

 OUTPUT CONTROL FOR STRESS PERIOD    3   TIME STEP  98
    SAVE HEAD FOR ALL LAYERS
    SAVE DRAWDOWN FOR ALL LAYERS
    SAVE BUDGET
    PRINT HEAD FOR ALL LAYERS
    PRINT BUDGET
 UBDSV1 SAVING "         STORAGE" ON UNIT  53 AT TIME STEP 98, STRESS PERIOD   3
 UBDSV2 SAVING "   CONSTANT HEAD" ON UNIT  53 AT TIME STEP 98, STRESS PERIOD   3
 UBDSV1 SAVING "FLOW RIGHT FACE " ON UNIT  53 AT TIME STEP 98, STRESS PERIOD   3
 UBDSV1 SAVING "FLOW FRONT FACE " ON UNIT  53 AT TIME STEP 98, STRESS PERIOD   3
1
              HEAD IN LAYER   1 AT END OF TIME STEP  98 IN STRESS PERIOD    3
  ---------------------------------------------------------------------------

            1           2           3           4           5           6           7           8           9          10
 ........................................................................................................................
   1    9.989       8.895       7.784       6.665       5.555       4.469       3.389       2.294       1.169      1.1707E-02
   2    9.989       8.873       7.734       6.583       5.451       4.383       3.333       2.263       1.155      1.1571E-02
   3    9.989       8.831       7.635       6.403       5.199       4.195       3.222       2.206       1.132      1.1332E-02
   4    9.988       8.781       7.501       6.106       4.650       3.885       3.073       2.139       1.106      1.1077E-02
   5    9.988       8.752       7.403       5.764       3.286       3.528       2.965       2.102       1.094      1.0954E-02
   6    9.988       8.782       7.504       6.110       4.654       3.889       3.077       2.141       1.107      1.1089E-02
   7    9.989       8.835       7.643       6.414       5.211       4.206       3.231       2.212       1.135      1.1364E-02
   8    9.989       8.882       7.752       6.608       5.479       4.409       3.354       2.276       1.162      1.1639E-02
   9    9.989       8.914       7.820       6.715       5.612       4.522       3.431       2.321       1.182      1.1837E-02
  10    9.989       8.929       7.852       6.763       5.668       4.572       3.467       2.342       1.192      1.1938E-02

 HEAD WILL BE SAVED ON UNIT   51 AT END OF TIME STEP  98, STRESS PERIOD    3

 DRAWDOWN WILL BE SAVED ON UNIT   52 AT END OF TIME STEP  98, STRESS PERIOD    3
1
  VOLUMETRIC BUDGET FOR ENTIRE MODEL AT END OF TIME STEP 98 IN STRESS PERIOD   3
  ------------------------------------------------------------------------------

     CUMULATIVE VOLUMES      L**3       RATES FOR THIS TIME STEP      L**3/T
     ------------------                 ------------------------

           IN:                                      IN:
           ---                                      ---
             STORAGE =       25184.3340               STORAGE =         194.5999
       CONSTANT HEAD =           0.0000         CONSTANT HEAD =           0.0000
               WELLS =           0.0000                 WELLS =           0.0000
     HEAD DEP BOUNDS =      124248.1953       HEAD DEP BOUNDS =         677.9415

            TOTAL IN =      149432.5312              TOTAL IN =         872.5414

          OUT:                                     OUT:
          ----                                     ----
             STORAGE =           0.5783               STORAGE =           0.0000
       CONSTANT HEAD =           0.0000         CONSTANT HEAD =           0.0000
               WELLS =       29400.0000                 WELLS =         300.0000
     HEAD DEP BOUNDS =      120029.8594       HEAD DEP BOUNDS =         572.5424

           TOTAL OUT =      149430.4375             TOTAL OUT =         872.5424

            IN - OUT =           2.0938              IN - OUT =      -1.0376E-03

 PERCENT DISCREPANCY =           0.00     PERCENT DISCREPANCY =           0.00






          TIME SUMMARY AT END OF TIME STEP  98 IN STRESS PERIOD    3
                    SECONDS     MINUTES      HOURS       DAYS        YEARS
                    -----------------------------------------------------------
   TIME STEP LENGTH  86400.      1440.0      24.000      1.0000     2.73785E-03
 STRESS PERIOD TIME 8.46720E+06 1.41120E+05  2352.0      98.000     0.26831    
         TOTAL TIME 1.71936E+07 2.86560E+05  4776.0      199.00     0.54483    
1
 
 SOLVING FOR HEAD 

 OUTPUT CONTROL FOR STRESS PERIOD    3   TIME STEP  99
    SAVE HEAD FOR ALL LAYERS
    SAVE DRAWDOWN FOR ALL LAYERS
    SAVE BUDGET
    PRINT HEAD FOR ALL LAYERS
    PRINT BUDGET
 UBDSV1 SAVING "         STORAGE" ON UNIT  53 AT TIME STEP 99, STRESS PERIOD   3
 UBDSV2 SAVING "   CONSTANT HEAD" ON UNIT  53 AT TIME STEP 99, STRESS PERIOD   3
 UBDSV1 SAVING "FLOW RIGHT FACE " ON UNIT  53 AT TIME STEP 99, STRESS PERIOD   3
 UBDSV1 SAVING "FLOW FRONT FACE " ON UNIT  53 AT TIME STEP 99, STRESS PERIOD   3
1
              HEAD IN LAYER   1 AT END OF TIME STEP  99 IN STRESS PERIOD    3
  ---------------------------------------------------------------------------

            1           2           3           4           5           6           7           8           9          10
 ........................................................................................................................
   1    9.989       8.894       7.782       6.662       5.551       4.466       3.387       2.292       1.168      1.1696E-02
   2    9.989       8.872       7.732       6.580       5.448       4.380       3.330       2.261       1.154      1.1560E-02
   3    9.989       8.830       7.632       6.399       5.195       4.191       3.219       2.203       1.130      1.1320E-02
   4    9.988       8.779       7.498       6.102       4.645       3.880       3.070       2.136       1.105      1.1063E-02
   5    9.988       8.750       7.400       5.760       3.281       3.524       2.962       2.099       1.093      1.0940E-02
   6    9.988       8.781       7.502       6.107       4.650       3.885       3.074       2.139       1.106      1.1076E-02
   7    9.989       8.834       7.641       6.411       5.208       4.203       3.228       2.210       1.134      1.1352E-02
   8    9.989       8.881       7.750       6.605       5.476       4.406       3.351       2.275       1.161      1.1629E-02
   9    9.989       8.913       7.819       6.713       5.610       4.520       3.429       2.319       1.181      1.1830E-02
  10    9.989       8.928       7.850       6.761       5.666       4.570       3.465       2.341       1.191      1.1931E-02

 HEAD WILL BE SAVED ON UNIT   51 AT END OF TIME STEP  99, STRESS PERIOD    3

 DRAWDOWN WILL BE SAVED ON UNIT   52 AT END OF TIME STEP  99, STRESS PERIOD    3
1
  VOLUMETRIC BUDGET FOR ENTIRE MODEL AT END OF TIME STEP 99 IN STRESS PERIOD   3
  ------------------------------------------------------------------------------

     CUMULATIVE VOLUMES      L**3       RATES FOR THIS TIME STEP      L**3/T
     ------------------                 ------------------------

           IN:                                      IN:
           ---                                      ---
             STORAGE =       25377.6953               STORAGE =         193.3607
       CONSTANT HEAD =           0.0000         CONSTANT HEAD =           0.0000
               WELLS =           0.0000                 WELLS =           0.0000
     HEAD DEP BOUNDS =      124926.8281       HEAD DEP BOUNDS =         678.6295

            TOTAL IN =      150304.5312              TOTAL IN =         871.9901

          OUT:                                     OUT:
          ----                                     ----
             STORAGE =           0.5783               STORAGE =           0.0000
       CONSTANT HEAD =           0.0000         CONSTANT HEAD =           0.0000
               WELLS =       29700.0000                 WELLS =         300.0000
     HEAD DEP BOUNDS =      120601.8438       HEAD DEP BOUNDS =         571.9875

           TOTAL OUT =      150302.4219             TOTAL OUT =         871.9875

            IN - OUT =           2.1094              IN - OUT =       2.6245E-03

 PERCENT DISCREPANCY =           0.00     PERCENT DISCREPANCY =           0.00






          TIME SUMMARY AT END OF TIME STEP  99 IN STRESS PERIOD    3
                    SECONDS     MINUTES      HOURS       DAYS        YEARS
                    -----------------------------------------------------------
   TIME STEP LENGTH  86400.      1440.0      24.000      1.0000     2.73785E-03
 STRESS PERIOD TIME 8.55360E+06 1.42560E+05  2376.0      99.000     0.27105    
         TOTAL TIME 1.72800E+07 2.88000E+05  4800.0      200.00     0.54757    
1
 
 SOLVING FOR HEAD 

 OUTPUT CONTROL FOR STRESS PERIOD    3   TIME STEP 100
    SAVE HEAD FOR ALL LAYERS
    SAVE DRAWDOWN FOR ALL LAYERS
    SAVE BUDGET
    PRINT HEAD FOR ALL LAYERS
    PRINT BUDGET
 UBDSV1 SAVING "         STORAGE" ON UNIT  53 AT TIME STEP100, STRESS PERIOD   3
 UBDSV2 SAVING "   CONSTANT HEAD" ON UNIT  53 AT TIME STEP100, STRESS PERIOD   3
 UBDSV1 SAVING "FLOW RIGHT FACE " ON UNIT  53 AT TIME STEP100, STRESS PERIOD   3
 UBDSV1 SAVING "FLOW FRONT FACE " ON UNIT  53 AT TIME STEP100, STRESS PERIOD   3
1
              HEAD IN LAYER   1 AT END OF TIME STEP 100 IN STRESS PERIOD    3
  ---------------------------------------------------------------------------

            1           2           3           4           5           6           7           8           9          10
 ........................................................................................................................
   1    9.989       8.893       7.780       6.659       5.548       4.463       3.384       2.290       1.167      1.1686E-02
   2    9.989       8.870       7.730       6.576       5.444       4.376       3.327       2.259       1.153      1.1549E-02
   3    9.989       8.828       7.630       6.396       5.191       4.187       3.215       2.201       1.129      1.1307E-02
   4    9.988       8.778       7.496       6.098       4.641       3.876       3.066       2.134       1.104      1.1049E-02
   5    9.988       8.749       7.397       5.757       3.277       3.520       2.958       2.097       1.091      1.0926E-02
   6    9.988       8.780       7.499       6.103       4.646       3.881       3.070       2.136       1.105      1.1062E-02
   7    9.989       8.833       7.638       6.408       5.204       4.199       3.225       2.207       1.132      1.1341E-02
   8    9.989       8.880       7.748       6.602       5.473       4.403       3.349       2.273       1.160      1.1620E-02
   9    9.989       8.912       7.817       6.711       5.608       4.517       3.427       2.318       1.180      1.1822E-02
  10    9.989       8.927       7.849       6.759       5.664       4.568       3.463       2.340       1.190      1.1925E-02

 HEAD WILL BE SAVED ON UNIT   51 AT END OF TIME STEP 100, STRESS PERIOD    3

 DRAWDOWN WILL BE SAVED ON UNIT   52 AT END OF TIME STEP 100, STRESS PERIOD    3
1
  VOLUMETRIC BUDGET FOR ENTIRE MODEL AT END OF TIME STEP100 IN STRESS PERIOD   3
  ------------------------------------------------------------------------------

     CUMULATIVE VOLUMES      L**3       RATES FOR THIS TIME STEP      L**3/T
     ------------------                 ------------------------

           IN:                                      IN:
           ---                                      ---
             STORAGE =       25569.8184               STORAGE =         192.1238
       CONSTANT HEAD =           0.0000         CONSTANT HEAD =           0.0000
               WELLS =           0.0000                 WELLS =           0.0000
     HEAD DEP BOUNDS =      125606.1172       HEAD DEP BOUNDS =         679.2929

            TOTAL IN =      151175.9375              TOTAL IN =         871.4167

          OUT:                                     OUT:
          ----                                     ----
             STORAGE =           0.5783               STORAGE =           0.0000
       CONSTANT HEAD =           0.0000         CONSTANT HEAD =           0.0000
               WELLS =       30000.0000                 WELLS =         300.0000
     HEAD DEP BOUNDS =      121173.2812       HEAD DEP BOUNDS =         571.4347

           TOTAL OUT =      151173.8594             TOTAL OUT =         871.4347

            IN - OUT =           2.0781              IN - OUT =      -1.7944E-02

 PERCENT DISCREPANCY =           0.00     PERCENT DISCREPANCY =           0.00






          TIME SUMMARY AT END OF TIME STEP 100 IN STRESS PERIOD    3
                    SECONDS     MINUTES      HOURS       DAYS        YEARS
                    -----------------------------------------------------------
   TIME STEP LENGTH  86400.      1440.0      24.000      1.0000     2.73785E-03
 STRESS PERIOD TIME 8.64000E+06 1.44000E+05  2400.0      100.00     0.27379    
         TOTAL TIME 1.73664E+07 2.89440E+05  4824.0      201.00     0.55031    
1

 Run end date and time (yyyy/mm/dd hh:mm:ss): 2025/03/17 11:11:34
 Elapsed run time:  0.147 Seconds

