                                   MODFLOW 6
                U.S. GEOLOGICAL SURVEY MODULAR HYDROLOGIC MODEL
                          GROUNDWATER FLOW MODEL (GWF)
                   VERSION 6.3.0 release candidate 02/06/2022
                               ***DEVELOP MODE***

   MODFLOW 6 compiled Feb 06 2022 02:35:51 with Intel(R) Fortran Intel(R) 64
   Compiler Classic for applications running on Intel(R) 64, Version 2021.5.0
                             Build 20211109_000000

This software is preliminary or provisional and is subject to 
revision. It is being provided to meet the need for timely best 
science. The software has not received final approval by the U.S. 
Geological Survey (USGS). No warranty, expressed or implied, is made 
by the USGS or the U.S. Government as to the functionality of the 
software and related material nor shall the fact of release 
constitute any such warranty. The software is provided on the 
condition that neither the USGS nor the U.S. Government shall be held 
liable for any damages resulting from the authorized or unauthorized 
use of the software.


As a work of the United States Government, this USGS product is 
in the public domain within the United States. You can copy, 
modify, distribute, and perform the work, even for commercial 
purposes, all without asking permission. Additionally, USGS 
waives copyright and related rights in the work worldwide 
through CC0 1.0 Universal Public Domain Dedication 
(https://creativecommons.org/publicdomain/zero/1.0/).

The following GNU Lesser General Public License (LGPL) libraries
are used in this USGS product:

    SPARSKIT version 2.0
      ilut, luson, and qsplit 
      (https://www-users.cse.umn.edu/~saad/software/SPARSKIT/)

    RCM - Reverse Cuthill McKee Ordering
      (https://people.math.sc.edu/Burkardt/f_src/rcm/rcm.html)

    BLAS - Basic Linear Algebra Subprograms Level 1
      (https://people.math.sc.edu/Burkardt/f_src/blas1_d/blas1_d.html)

    SPARSEKIT - Sparse Matrix Utility Package
      amux, dperm, dvperm, rperm, and cperm
      (https://people.sc.fsu.edu/~jburkardt/f77_src/sparsekit/sparsekit.html)

The following BSD-3 License libraries are used in this USGS product:

    Modern Fortran DAG Library
      Copyright (c) 2018, Jacob Williams
      All rights reserved.
      (https://github.com/jacobwilliams/daglib)

MODFLOW 6 compiler options: /O2 /heap-arrays:0 /fpe:0 /traceback /nologo /fpp
/c /module:.\mod_temp\ /object:.\obj_temp\

System command used to initiate simulation:
mf6

MODFLOW was compiled using uniform precision.

Real Variables
  KIND: 8
  TINY (smallest non-zero value):    2.225074-308
  HUGE (largest value):    1.797693+308
  PRECISION: 15
  BIT SIZE: 64

Integer Variables
  KIND: 4
  HUGE (largest value): 2147483647
  BIT SIZE: 32

Long Integer Variables
  KIND: 8
  HUGE (largest value): 9223372036854775807
  BIT SIZE: 64

Logical Variables
  KIND: 4
  BIT SIZE: 32
 

 OPENED freyberg6.dis
 FILE TYPE:DIS6                   UNIT 1005   STATUS:OLD                 
 FORMAT:FORMATTED              ACCESS:SEQUENTIAL          
 ACTION:READ                


 OPENED freyberg6.ic
 FILE TYPE:IC6                    UNIT 1006   STATUS:OLD                 
 FORMAT:FORMATTED              ACCESS:SEQUENTIAL          
 ACTION:READ                


 OPENED freyberg6.npf
 FILE TYPE:NPF6                   UNIT 1007   STATUS:OLD                 
 FORMAT:FORMATTED              ACCESS:SEQUENTIAL          
 ACTION:READ                


 OPENED freyberg6.sto
 FILE TYPE:STO6                   UNIT 1008   STATUS:OLD                 
 FORMAT:FORMATTED              ACCESS:SEQUENTIAL          
 ACTION:READ                


 OPENED freyberg6.oc
 FILE TYPE:OC6                    UNIT 1009   STATUS:OLD                 
 FORMAT:FORMATTED              ACCESS:SEQUENTIAL          
 ACTION:READ                


 OPENED freyberg6.wel
 FILE TYPE:WEL6                   UNIT 1010   STATUS:OLD                 
 FORMAT:FORMATTED              ACCESS:SEQUENTIAL          
 ACTION:READ                


 OPENED freyberg6.rch
 FILE TYPE:RCH6                   UNIT 1011   STATUS:OLD                 
 FORMAT:FORMATTED              ACCESS:SEQUENTIAL          
 ACTION:READ                


 OPENED freyberg6.ghb
 FILE TYPE:GHB6                   UNIT 1012   STATUS:OLD                 
 FORMAT:FORMATTED              ACCESS:SEQUENTIAL          
 ACTION:READ                


 OPENED freyberg6.sfr
 FILE TYPE:SFR6                   UNIT 1013   STATUS:OLD                 
 FORMAT:FORMATTED              ACCESS:SEQUENTIAL          
 ACTION:READ                


 OPENED freyberg6.obs
 FILE TYPE:OBS6                   UNIT 1014   STATUS:OLD                 
 FORMAT:FORMATTED              ACCESS:SEQUENTIAL          
 ACTION:READ                

 NAMEFILE OPTIONS:
    NEWTON-RAPHSON method enabled for the model.

 DIS -- STRUCTURED GRID DISCRETIZATION PACKAGE, VERSION 2 : 3/27/2014 - INPUT READ FROM UNIT 1005


 PROCESSING DISCRETIZATION OPTIONS
    MODEL LENGTH UNIT IS METERS
 END OF DISCRETIZATION OPTIONS
 PROCESSING DISCRETIZATION DIMENSIONS
    NLAY =       1
    NROW =      40
    NCOL =      20
 END OF DISCRETIZATION DIMENSIONS
 PROCESSING GRIDDATA

 OPENED freyberg6.dis_delr.txt
 FILE TYPE:OPEN/CLOSE   UNIT 1016   STATUS:OLD                 
 FORMAT:FORMATTED              ACCESS:SEQUENTIAL          
 ACTION:READ                


 OPENED freyberg6.dis_delc.txt
 FILE TYPE:OPEN/CLOSE   UNIT 1017   STATUS:OLD                 
 FORMAT:FORMATTED              ACCESS:SEQUENTIAL          
 ACTION:READ                


 OPENED freyberg6.dis_top.txt
 FILE TYPE:OPEN/CLOSE   UNIT 1018   STATUS:OLD                 
 FORMAT:FORMATTED              ACCESS:SEQUENTIAL          
 ACTION:READ                


 OPENED freyberg6.dis_botm_layer1.txt
 FILE TYPE:OPEN/CLOSE   UNIT 1019   STATUS:OLD                 
 FORMAT:FORMATTED              ACCESS:SEQUENTIAL          
 ACTION:READ                


 OPENED freyberg6.dis_idomain_layer1.txt
 FILE TYPE:OPEN/CLOSE   UNIT 1020   STATUS:OLD                 
 FORMAT:FORMATTED              ACCESS:SEQUENTIAL          
 ACTION:READ                

 END PROCESSING GRIDDATA

 THE SPECIFIED IDOMAIN RESULTS IN A REDUCED NUMBER OF CELLS.
 NUMBER OF USER NODES: 800
 NUMBER OF NODES IN SOLUTION: 706



 NPF -- NODE PROPERTY FLOW PACKAGE, VERSION 1, 3/30/2015 INPUT READ FROM UNIT 1007


 PROCESSING NPF OPTIONS
    CELL-BY-CELL FLOW INFORMATION WILL BE SAVED TO BINARY FILE WHENEVER ICBCFL IS NOT ZERO.
 END OF NPF OPTIONS

 WEL   -- WEL PACKAGE, VERSION 8, 2/22/2014 INPUT READ FROM UNIT 1010

 PROCESSING WEL OPTIONS
    LISTS OF WEL CELLS WILL BE PRINTED.
    WEL FLOWS WILL BE PRINTED TO LISTING FILE.
    FLOWS WILL BE SAVED TO BUDGET FILE SPECIFIED IN OUTPUT CONTROL
 END OF WEL OPTIONS

 PROCESSING WEL DIMENSIONS
    MAXBOUND =       7
 END OF WEL DIMENSIONS

 GHB   -- GHB PACKAGE, VERSION 8, 2/22/2014 INPUT READ FROM UNIT 1012

 PROCESSING GHB OPTIONS
    LISTS OF GHB CELLS WILL BE PRINTED.
    GHB FLOWS WILL BE PRINTED TO LISTING FILE.
    FLOWS WILL BE SAVED TO BUDGET FILE SPECIFIED IN OUTPUT CONTROL
 END OF GHB OPTIONS

 PROCESSING GHB DIMENSIONS
    MAXBOUND =      30
 END OF GHB DIMENSIONS

 RCH   -- RCH PACKAGE, VERSION 8, 2/22/2014 INPUT READ FROM UNIT 1011

 PROCESSING RCH OPTIONS
    RECHARGE INPUT WILL BE READ AS ARRAY(S).
    FLOWS WILL BE SAVED TO BUDGET FILE SPECIFIED IN OUTPUT CONTROL
 END OF RCHA OPTIONS

 SFR   -- SFR PACKAGE, VERSION 8, 2/22/2014 INPUT READ FROM UNIT 1013

 PROCESSING SFR OPTIONS
    SFR BOUNDARIES HAVE NAMES IN LAST COLUMN.
    LISTS OF SFR CELLS WILL BE PRINTED.
    FLOWS WILL BE SAVED TO BUDGET FILE SPECIFIED IN OUTPUT CONTROL

 OPENED sfr.obs
 FILE TYPE:OBS   UNIT 1021   STATUS:OLD                 
 FORMAT:FORMATTED              ACCESS:SEQUENTIAL          
 ACTION:READ                

    MAXIMUM DEPTH CHANGE VALUE (.1000000000000000E-03) SPECIFIED.
    UNIT CONVERSION VALUE (86400.00000000000) SPECIFIED.
 END OF SFR OPTIONS

 PROCESSING SFR DIMENSIONS
    NREACHES = 40
 END OF SFR DIMENSIONS

 OPENED freyberg6.sfr_packagedata.txt
 FILE TYPE:OPEN/CLOSE   UNIT 1022   STATUS:OLD                 
 FORMAT:FORMATTED              ACCESS:SEQUENTIAL          
 ACTION:READ                


 PROCESSING SFR PACKAGEDATA
 END OF SFR PACKAGEDATA

 OPENED freyberg6.sfr_connectiondata.txt
 FILE TYPE:OPEN/CLOSE   UNIT 1023   STATUS:OLD                 
 FORMAT:FORMATTED              ACCESS:SEQUENTIAL          
 ACTION:READ                


 PROCESSING SFR CONNECTIONDATA
 END OF SFR CONNECTIONDATA

 IC -- INITIAL CONDITIONS PACKAGE, VERSION 8, 3/28/2015 INPUT READ FROM UNIT 1006
 PROCESSING GRIDDATA

 OPENED freyberg6.ic_strt_layer1.txt
 FILE TYPE:OPEN/CLOSE   UNIT 1024   STATUS:OLD                 
 FORMAT:FORMATTED              ACCESS:SEQUENTIAL          
 ACTION:READ                

 END PROCESSING GRIDDATA
 PROCESSING GRIDDATA

 OPENED freyberg6.npf_icelltype_layer1.txt
 FILE TYPE:OPEN/CLOSE   UNIT 1025   STATUS:OLD                 
 FORMAT:FORMATTED              ACCESS:SEQUENTIAL          
 ACTION:READ                


 OPENED freyberg6.npf_k_layer1.txt
 FILE TYPE:OPEN/CLOSE   UNIT 1026   STATUS:OLD                 
 FORMAT:FORMATTED              ACCESS:SEQUENTIAL          
 ACTION:READ                


 OPENED freyberg6.npf_k33_layer1.txt
 FILE TYPE:OPEN/CLOSE   UNIT 1027   STATUS:OLD                 
 FORMAT:FORMATTED              ACCESS:SEQUENTIAL          
 ACTION:READ                

 K22 not provided.  Assuming K22 = K.
 END PROCESSING GRIDDATA

 STO -- STORAGE PACKAGE, VERSION 1, 5/19/2014 INPUT READ FROM UNIT 1008


 PROCESSING STORAGE OPTIONS
 END OF STORAGE OPTIONS
 PROCESSING GRIDDATA

 OPENED freyberg6.sto_iconvert_layer1.txt
 FILE TYPE:OPEN/CLOSE   UNIT 1028   STATUS:OLD                 
 FORMAT:FORMATTED              ACCESS:SEQUENTIAL          
 ACTION:READ                


 OPENED freyberg6.sto_ss_layer1.txt
 FILE TYPE:OPEN/CLOSE   UNIT 1029   STATUS:OLD                 
 FORMAT:FORMATTED              ACCESS:SEQUENTIAL          
 ACTION:READ                


 OPENED freyberg6.sto_sy_layer1.txt
 FILE TYPE:OPEN/CLOSE   UNIT 1030   STATUS:OLD                 
 FORMAT:FORMATTED              ACCESS:SEQUENTIAL          
 ACTION:READ                

 END PROCESSING GRIDDATA

The observation utility is active for "FREYBERG6"

Processing observation options:

Text output number of digits of precision set to: 10
The PRINT_INPUT option has been specified.


 OBSERVATIONS READ FROM FILE "freyberg6.obs"
 ----------------------------------------------------------------------------------------------------------------------------------------------------------------------------------------------------------------------------
 NAME                                     TYPE                                       TIME         LOCATION DATA                              OUTPUT FILENAME                                                                 
 ----------------------------------------------------------------------------------------------------------------------------------------------------------------------------------------------------------------------------
 TRGW-0-2-15                              CONTINUOUS  HEAD                           ALL TIMES    "  1 3 16"                                 heads.csv                                                                       
 TRGW-0-2-9                               CONTINUOUS  HEAD                           ALL TIMES    "  1 3 10"                                 heads.csv                                                                       
 TRGW-0-3-8                               CONTINUOUS  HEAD                           ALL TIMES    "  1 4 9"                                  heads.csv                                                                       
 TRGW-0-9-1                               CONTINUOUS  HEAD                           ALL TIMES    "  1 10 2"                                 heads.csv                                                                       
 TRGW-0-13-10                             CONTINUOUS  HEAD                           ALL TIMES    "  1 14 11"                                heads.csv                                                                       
 TRGW-0-15-16                             CONTINUOUS  HEAD                           ALL TIMES    "  1 16 17"                                heads.csv                                                                       
 TRGW-0-21-10                             CONTINUOUS  HEAD                           ALL TIMES    "  1 22 11"                                heads.csv                                                                       
 TRGW-0-22-15                             CONTINUOUS  HEAD                           ALL TIMES    "  1 23 16"                                heads.csv                                                                       
 TRGW-0-24-4                              CONTINUOUS  HEAD                           ALL TIMES    "  1 25 5"                                 heads.csv                                                                       
 TRGW-0-26-6                              CONTINUOUS  HEAD                           ALL TIMES    "  1 27 7"                                 heads.csv                                                                       
 TRGW-0-29-15                             CONTINUOUS  HEAD                           ALL TIMES    "  1 30 16"                                heads.csv                                                                       
 TRGW-0-33-7                              CONTINUOUS  HEAD                           ALL TIMES    "  1 34 8"                                 heads.csv                                                                       
 TRGW-0-34-10                             CONTINUOUS  HEAD                           ALL TIMES    "  1 35 11"                                heads.csv                                                                       
 ----------------------------------------------------------------------------------------------------------------------------------------------------------------------------------------------------------------------------


    BINARY GRID INFORMATION WILL BE WRITTEN TO:
      UNIT NUMBER: 1032
      FILE NAME: E:\15_REPOS\00_BETAMI\01_GMDSI_____advanced\01_Tutorials___AGAIN___\part1_02_pest_setup_NOTYET__W_inprogress\pest_files\freyberg6.dis.grb

 OPENED E:\15_REPOS\00_BETAMI\01_GMDSI_____advanced\01_Tutorials___AGAIN___\part1_02_pest_setup_NOTYET__W_inprogress\pest_files\freyberg6.dis.grb
 FILE TYPE:DATA(BINARY)   UNIT 1032   STATUS:REPLACE             
 FORMAT:UNFORMATTED            ACCESS:STREAM              
 ACTION:READWRITE           

      THE LAST TIME STEP WILL BE PRINTED
      THE LAST TIME STEP WILL BE PRINTED

 PROCESSING OC OPTIONS

    BUDGET INFORMATION WILL BE WRITTEN TO:
      UNIT NUMBER: 1033
      FILE NAME: freyberg6_freyberg.cbc

 OPENED freyberg6_freyberg.cbc
 FILE TYPE:DATA(BINARY)   UNIT 1033   STATUS:REPLACE             
 FORMAT:UNFORMATTED            ACCESS:STREAM              
 ACTION:READWRITE           

    HEAD INFORMATION WILL BE WRITTEN TO:
      UNIT NUMBER: 1034
      FILE NAME: freyberg6_freyberg.hds

 OPENED freyberg6_freyberg.hds
 FILE TYPE:DATA(BINARY)   UNIT 1034   STATUS:REPLACE             
 FORMAT:UNFORMATTED            ACCESS:STREAM              
 ACTION:READWRITE           

 END OF OC OPTIONS

The observation utility is active for "SFR_1"

Processing observation options:



 SFR PACKAGE (SFR_1) STATIC REACH DATA
 ---------------------------------------------------------------------------------------------------------------------------------------
                                                                                                                              UPSTREAM  
   NUMBER   CELLID                  LENGTH       WIDTH        SLOPE         TOP       THICKNESS        HK       ROUGHNESS     FRACTION  
 ---------------------------------------------------------------------------------------------------------------------------------------
     1      (1,1,16)              250.00       5.0000       5.00000E-05  34.000       1.0000       0.10000      3.00000E-02  1.0000     
     2      (1,2,16)              250.00       5.0000       5.00000E-05  33.987       1.0000       0.10000      3.00000E-02  1.0000     
     3      (1,3,16)              250.00       5.0000       5.00000E-05  33.974       1.0000       0.10000      3.00000E-02  1.0000     
     4      (1,4,16)              250.00       5.0000       5.00000E-05  33.962       1.0000       0.10000      3.00000E-02  1.0000     
     5      (1,5,16)              250.00       5.0000       5.00000E-05  33.949       1.0000       0.10000      3.00000E-02  1.0000     
     6      (1,6,16)              250.00       5.0000       5.00000E-05  33.936       1.0000       0.10000      3.00000E-02  1.0000     
     7      (1,7,16)              250.00       5.0000       5.00000E-05  33.923       1.0000       0.10000      3.00000E-02  1.0000     
     8      (1,8,16)              250.00       5.0000       5.00000E-05  33.910       1.0000       0.10000      3.00000E-02  1.0000     
     9      (1,9,16)              250.00       5.0000       5.00000E-05  33.897       1.0000       0.10000      3.00000E-02  1.0000     
     10     (1,10,16)             250.00       5.0000       5.00000E-05  33.885       1.0000       0.10000      3.00000E-02  1.0000     
     11     (1,11,16)             250.00       5.0000       5.00000E-05  33.872       1.0000       0.10000      3.00000E-02  1.0000     
     12     (1,12,16)             250.00       5.0000       5.00000E-05  33.859       1.0000       0.10000      3.00000E-02  1.0000     
     13     (1,13,16)             250.00       5.0000       5.00000E-05  33.846       1.0000       0.10000      3.00000E-02  1.0000     
     14     (1,14,16)             250.00       5.0000       5.00000E-05  33.833       1.0000       0.10000      3.00000E-02  1.0000     
     15     (1,15,16)             250.00       5.0000       5.00000E-05  33.821       1.0000       0.10000      3.00000E-02  1.0000     
     16     (1,16,16)             250.00       5.0000       5.00000E-05  33.808       1.0000       0.10000      3.00000E-02  1.0000     
     17     (1,17,16)             250.00       5.0000       5.00000E-05  33.795       1.0000       0.10000      3.00000E-02  1.0000     
     18     (1,18,16)             250.00       5.0000       5.00000E-05  33.782       1.0000       0.10000      3.00000E-02  1.0000     
     19     (1,19,16)             250.00       5.0000       5.00000E-05  33.769       1.0000       0.10000      3.00000E-02  1.0000     
     20     (1,20,16)             250.00       5.0000       5.00000E-05  33.756       1.0000       0.10000      3.00000E-02  1.0000     
     21     (1,21,16)             250.00       5.0000       5.00000E-05  33.744       1.0000       0.10000      3.00000E-02  1.0000     
     22     (1,22,16)             250.00       5.0000       5.00000E-05  33.731       1.0000       0.10000      3.00000E-02  1.0000     
     23     (1,23,16)             250.00       5.0000       5.00000E-05  33.718       1.0000       0.10000      3.00000E-02  1.0000     
     24     (1,24,16)             250.00       5.0000       5.00000E-05  33.705       1.0000       0.10000      3.00000E-02  1.0000     
     25     (1,25,16)             250.00       5.0000       5.00000E-05  33.692       1.0000       0.10000      3.00000E-02  1.0000     
     26     (1,26,16)             250.00       5.0000       5.00000E-05  33.679       1.0000       0.10000      3.00000E-02  1.0000     
     27     (1,27,16)             250.00       5.0000       5.00000E-05  33.667       1.0000       0.10000      3.00000E-02  1.0000     
     28     (1,28,16)             250.00       5.0000       5.00000E-05  33.654       1.0000       0.10000      3.00000E-02  1.0000     
     29     (1,29,16)             250.00       5.0000       5.00000E-05  33.641       1.0000       0.10000      3.00000E-02  1.0000     
     30     (1,30,16)             250.00       5.0000       5.00000E-05  33.628       1.0000       0.10000      3.00000E-02  1.0000     
     31     (1,31,16)             250.00       5.0000       5.00000E-05  33.615       1.0000       0.10000      3.00000E-02  1.0000     
     32     (1,32,16)             250.00       5.0000       5.00000E-05  33.603       1.0000       0.10000      3.00000E-02  1.0000     
     33     (1,33,16)             250.00       5.0000       5.00000E-05  33.590       1.0000       0.10000      3.00000E-02  1.0000     
     34     (1,34,16)             250.00       5.0000       5.00000E-05  33.577       1.0000       0.10000      3.00000E-02  1.0000     
     35     (1,35,16)             250.00       5.0000       5.00000E-05  33.564       1.0000       0.10000      3.00000E-02  1.0000     
     36     (1,36,16)             250.00       5.0000       5.00000E-05  33.551       1.0000       0.10000      3.00000E-02  1.0000     
     37     (1,37,16)             250.00       5.0000       5.00000E-05  33.538       1.0000       0.10000      3.00000E-02  1.0000     
     38     (1,38,16)             250.00       5.0000       5.00000E-05  33.526       1.0000       0.10000      3.00000E-02  1.0000     
     39     (1,39,16)             250.00       5.0000       5.00000E-05  33.513       1.0000       0.10000      3.00000E-02  1.0000     
     40     (1,40,16)             250.00       5.0000       5.00000E-05  33.510       1.0000       0.10000      3.00000E-02  1.0000     
 ---------------------------------------------------------------------------------------------------------------------------------------



 SFR PACKAGE (SFR_1) STATIC REACH CONNECTION DATA
 --------------------------------
   REACH      CONN 1     CONN 2  
 --------------------------------
     1          2                
     2          1          3     
     3          2          4     
     4          3          5     
     5          4          6     
     6          5          7     
     7          6          8     
     8          7          9     
     9          8          10    
     10         9          11    
     11         10         12    
     12         11         13    
     13         12         14    
     14         13         15    
     15         14         16    
     16         15         17    
     17         16         18    
     18         17         19    
     19         18         20    
     20         19         21    
     21         20         22    
     22         21         23    
     23         22         24    
     24         23         25    
     25         24         26    
     26         25         27    
     27         26         28    
     28         27         29    
     29         28         30    
     30         29         31    
     31         30         32    
     32         31         33    
     33         32         34    
     34         33         35    
     35         34         36    
     36         35         37    
     37         36         38    
     38         37         39    
     39         38         40    
     40         39               
 --------------------------------



 SFR PACKAGE (SFR_1) STATIC UPSTREAM REACH CONNECTION DATA
 ---------------------
             UPSTREAM 
   REACH      CONN 1  
 ---------------------
     1                
     2          1     
     3          2     
     4          3     
     5          4     
     6          5     
     7          6     
     8          7     
     9          8     
     10         9     
     11         10    
     12         11    
     13         12    
     14         13    
     15         14    
     16         15    
     17         16    
     18         17    
     19         18    
     20         19    
     21         20    
     22         21    
     23         22    
     24         23    
     25         24    
     26         25    
     27         26    
     28         27    
     29         28    
     30         29    
     31         30    
     32         31    
     33         32    
     34         33    
     35         34    
     36         35    
     37         36    
     38         37    
     39         38    
     40         39    
 ---------------------



 SFR PACKAGE (SFR_1) STATIC DOWNSTREAM REACH CONNECTION DATA
 ---------------------
            DOWNSTREAM
   REACH      CONN 1  
 ---------------------
     1          2     
     2          3     
     3          4     
     4          5     
     5          6     
     6          7     
     7          8     
     8          9     
     9          10    
     10         11    
     11         12    
     12         13    
     13         14    
     14         15    
     15         16    
     16         17    
     17         18    
     18         19    
     19         20    
     20         21    
     21         22    
     22         23    
     23         24    
     24         25    
     25         26    
     26         27    
     27         28    
     28         29    
     29         30    
     30         31    
     31         32    
     32         33    
     33         34    
     34         35    
     35         36    
     36         37    
     37         38    
     38         39    
     39         40    
     40               
 ---------------------



start timestep kper="1" kstp="1" mode="normal"


 BEGIN READING OUTPUT CONTROL FOR STRESS PERIOD 1
      THE LAST TIME STEP WILL BE SAVED
      THE LAST TIME STEP WILL BE SAVED
      THE LAST TIME STEP WILL BE PRINTED

 END READING OUTPUT CONTROL FOR STRESS PERIOD 1


 PROCESSING STORAGE PERIOD DATA
 END PROCESSING STORAGE PERIOD DATA


 STRESS PERIOD 1 IS TRANSIENT


 OPENED freyberg6.wel_stress_period_data_1.txt
 FILE TYPE:OPEN/CLOSE   UNIT 1036   STATUS:OLD                 
 FORMAT:FORMATTED              ACCESS:SEQUENTIAL          
 ACTION:READ                

 ---------------------------------------------------
  WEL NO.    LAYER    ROW     COL     STRESS RATE   
 ---------------------------------------------------
     1         1      10      17    -150.000000     
     2         1      12      14    -150.000000     
     3         1      21      15    -150.000000     
     4         1      27      11    -150.000000     
     5         1      30       7    -150.000000     
     6         1      35      13    -150.000000     
     7         1      25       5     0.00000000     
 ---------------------------------------------------



 OPENED freyberg6.ghb_stress_period_data_1.txt
 FILE TYPE:OPEN/CLOSE   UNIT 1037   STATUS:OLD                 
 FORMAT:FORMATTED              ACCESS:SEQUENTIAL          
 ACTION:READ                

 --------------------------------------------------------------------
  GHB NO.    LAYER    ROW     COL        STAGE         CONDUCTANCE   
 --------------------------------------------------------------------
     1         1      40       6     33.5000000       70.0000000     
     2         1      40       7     33.5000000       70.0000000     
     3         1      40       8     33.5000000       70.0000000     
     4         1      40       9     33.5000000       70.0000000     
     5         1      40      10     33.5000000       70.0000000     
     6         1      40      11     33.5000000       70.0000000     
     7         1      40      12     33.5000000       70.0000000     
     8         1      40      13     33.5000000       70.0000000     
     9         1      40      14     33.5000000       70.0000000     
     10        1      40      15     33.5000000       70.0000000     
 --------------------------------------------------------------------



 OPENED freyberg6.rch_recharge_1.txt
 FILE TYPE:OPEN/CLOSE   UNIT 1038   STATUS:OLD                 
 FORMAT:FORMATTED              ACCESS:SEQUENTIAL          
 ACTION:READ                


 OPENED freyberg6.sfr_perioddata_1.txt
 FILE TYPE:OPEN/CLOSE   UNIT 1039   STATUS:OLD                 
 FORMAT:FORMATTED              ACCESS:SEQUENTIAL          
 ACTION:READ                


 SFR PACKAGE (SFR_1) DATA FOR PERIOD      1
 ---------------------------------------------------------------
   NUMBER   KEYWORD                  VALUE 1         VALUE 2    
 ---------------------------------------------------------------
     1      INFLOW               500.00000000000                
 ---------------------------------------------------------------



 SFR PACKAGE (SFR_1) CONNECTED REACH UPSTREAM FRACTION DATA
 ----------------------------------
            DOWNSTREAM             
   REACH     REACH 1    FRACTION 1 
 ----------------------------------
     1          2       1.0000     
     2          3       1.0000     
     3          4       1.0000     
     4          5       1.0000     
     5          6       1.0000     
     6          7       1.0000     
     7          8       1.0000     
     8          9       1.0000     
     9          10      1.0000     
     10         11      1.0000     
     11         12      1.0000     
     12         13      1.0000     
     13         14      1.0000     
     14         15      1.0000     
     15         16      1.0000     
     16         17      1.0000     
     17         18      1.0000     
     18         19      1.0000     
     19         20      1.0000     
     20         21      1.0000     
     21         22      1.0000     
     22         23      1.0000     
     23         24      1.0000     
     24         25      1.0000     
     25         26      1.0000     
     26         27      1.0000     
     27         28      1.0000     
     28         29      1.0000     
     29         30      1.0000     
     30         31      1.0000     
     31         32      1.0000     
     32         33      1.0000     
     33         34      1.0000     
     34         35      1.0000     
     35         36      1.0000     
     36         37      1.0000     
     37         38      1.0000     
     38         39      1.0000     
     39         40      1.0000     
     40                            
 ----------------------------------


 UBDSV1 SAVING     FLOW-JA-FACE ON UNIT   1033 AT TIME STEP      1, STRESS PERIOD      1
 UBDSV06 SAVING              WEL IN MODEL FREYBERG6        PACKAGE FREYBERG6       CONNECTED TO MODEL FREYBERG6        PACKAGE WEL              ON UNIT   1033 AT TIME STEP      1, STRESS PERIOD      1
 UBDSV06 SAVING              GHB IN MODEL FREYBERG6        PACKAGE FREYBERG6       CONNECTED TO MODEL FREYBERG6        PACKAGE GHB              ON UNIT   1033 AT TIME STEP      1, STRESS PERIOD      1
 UBDSV06 SAVING             RCHA IN MODEL FREYBERG6        PACKAGE FREYBERG6       CONNECTED TO MODEL FREYBERG6        PACKAGE RCH              ON UNIT   1033 AT TIME STEP      1, STRESS PERIOD      1
 UBDSV06 SAVING              SFR IN MODEL FREYBERG6        PACKAGE FREYBERG6       CONNECTED TO MODEL FREYBERG6        PACKAGE SFR_1            ON UNIT   1033 AT TIME STEP      1, STRESS PERIOD      1

 WEL PACKAGE (WEL) FLOW RATES   PERIOD      1   STEP        1
 -----------------------------------------------
   NUMBER   CELLID                    RATE      
 -----------------------------------------------
     1      (1,10,17)            -150.00000     
     2      (1,12,14)            -150.00000     
     3      (1,21,15)            -150.00000     
     4      (1,27,11)            -150.00000     
     5      (1,30,7)             -150.00000     
     6      (1,35,13)            -150.00000     
     7      (1,25,5)              0.0000000     
 -----------------------------------------------




 GHB PACKAGE (GHB) FLOW RATES   PERIOD      1   STEP        1
 -----------------------------------------------
   NUMBER   CELLID                    RATE      
 -----------------------------------------------
     1      (1,40,6)             -43.428903     
     2      (1,40,7)             -42.230745     
     3      (1,40,8)             -40.168215     
     4      (1,40,9)             -37.562483     
     5      (1,40,10)            -34.661075     
     6      (1,40,11)            -31.551212     
     7      (1,40,12)            -28.334777     
     8      (1,40,13)            -25.110383     
     9      (1,40,14)            -22.044515     
     10     (1,40,15)            -19.245013     
 -----------------------------------------------




 HEAD WILL BE SAVED ON UNIT 1034 AT END OF TIME STEP    1, STRESS PERIOD    1


  SFR_1 BUDGET FOR ENTIRE MODEL AT END OF TIME STEP    1, STRESS PERIOD   1
  ------------------------------------------------------------------------------

     CUMULATIVE SFR_1      L**3       RATES FOR THIS TIME STEP      L**3/T
     ------------------                 ------------------------

           IN:                                      IN:
           ---                                      ---
                 GWF =     7976327.4462                   GWF =        2183.7994
            RAINFALL =           0.0000              RAINFALL =           0.0000
         EVAPORATION =           0.0000           EVAPORATION =           0.0000
              RUNOFF =           0.0000                RUNOFF =           0.0000
          EXT-INFLOW =     1826250.0000            EXT-INFLOW =         500.0000
         EXT-OUTFLOW =           0.0000           EXT-OUTFLOW =           0.0000
             STORAGE =           0.0000               STORAGE =           0.0000

            TOTAL IN =     9802577.4462              TOTAL IN =        2683.7994

          OUT:                                     OUT:
          ----                                     ----
                 GWF =           0.0000                   GWF =           0.0000
            RAINFALL =           0.0000              RAINFALL =           0.0000
         EVAPORATION =           0.0000           EVAPORATION =           0.0000
              RUNOFF =           0.0000                RUNOFF =           0.0000
          EXT-INFLOW =           0.0000            EXT-INFLOW =           0.0000
         EXT-OUTFLOW =     9802577.4462           EXT-OUTFLOW =        2683.7994
             STORAGE =           0.0000               STORAGE =           0.0000

           TOTAL OUT =     9802577.4462             TOTAL OUT =        2683.7994

            IN - OUT =      -1.8626E-09              IN - OUT =      -4.5475E-13

 PERCENT DISCREPANCY =          -0.00     PERCENT DISCREPANCY =          -0.00



  VOLUME BUDGET FOR ENTIRE MODEL AT END OF TIME STEP    1, STRESS PERIOD   1
  ---------------------------------------------------------------------------------------------------

     CUMULATIVE VOLUME      L**3       RATES FOR THIS TIME STEP      L**3/T          PACKAGE NAME    
     ------------------                 ------------------------                     ----------------

           IN:                                      IN:
           ---                                      ---
              STO-SS =         120.2638                STO-SS =       3.2926E-02     STORAGE                          
              STO-SY =       37552.4587                STO-SY =          10.2813     STORAGE                          
                 WEL =           0.0000                   WEL =           0.0000     WEL                              
                 GHB =           0.0000                   GHB =           0.0000     GHB                              
                RCHA =    12243922.0647                  RCHA =        3352.2032     RCH                              
                 SFR =           0.0000                   SFR =           0.0000     SFR_1                            

            TOTAL IN =    12281594.7872              TOTAL IN =        3362.5174

          OUT:                                     OUT:
          ----                                     ----
              STO-SS =         662.2903                STO-SS =           0.1813     STORAGE                          
              STO-SY =      213813.2437                STO-SY =          58.5389     STORAGE                          
                 WEL =     3287250.0000                   WEL =         900.0000     WEL                              
                 GHB =     1184642.0660                   GHB =         324.3373     GHB                              
                RCHA =           0.0000                  RCHA =           0.0000     RCH                              
                 SFR =     7644321.3667                   SFR =        2092.9011     SFR_1                            

           TOTAL OUT =    12330688.9667             TOTAL OUT =        3375.9586

            IN - OUT =      -49094.1794              IN - OUT =         -13.4413

 PERCENT DISCREPANCY =          -0.40     PERCENT DISCREPANCY =          -0.40




         TIME SUMMARY AT END OF TIME STEP    1 IN STRESS PERIOD    1
                    SECONDS     MINUTES      HOURS       DAYS        YEARS
                    -----------------------------------------------------------
   TIME STEP LENGTH 3.15576E+08 5.25960E+06  87660.      3652.5      10.000    
 STRESS PERIOD TIME 3.15576E+08 5.25960E+06  87660.      3652.5      10.000    
         TOTAL TIME 3.15576E+08 5.25960E+06  87660.      3652.5      10.000    


end timestep


start timestep kper="2" kstp="1" mode="normal"


 END OF FILE DETECTED IN OUTPUT CONTROL.
 CURRENT OUTPUT CONTROL SETTINGS WILL BE 
 REPEATED UNTIL THE END OF THE SIMULATION.

 OUTPUT CONTROL FOR STRESS PERIOD 2 IS REPEATED USING SETTINGS FROM A PREVIOUS STRESS PERIOD.


 PROCESSING STORAGE PERIOD DATA
 END PROCESSING STORAGE PERIOD DATA


 STRESS PERIOD 2 IS TRANSIENT


 OPENED freyberg6.wel_stress_period_data_2.txt
 FILE TYPE:OPEN/CLOSE   UNIT 1040   STATUS:OLD                 
 FORMAT:FORMATTED              ACCESS:SEQUENTIAL          
 ACTION:READ                

 ---------------------------------------------------
  WEL NO.    LAYER    ROW     COL     STRESS RATE   
 ---------------------------------------------------
     1         1      10      17    -300.000000     
     2         1      12      14    -300.000000     
     3         1      21      15    -300.000000     
     4         1      27      11    -300.000000     
     5         1      30       7    -300.000000     
     6         1      35      13    -300.000000     
     7         1      25       5     0.00000000     
 ---------------------------------------------------



 REUSING GHBS FROM LAST STRESS PERIOD

 OPENED freyberg6.rch_recharge_2.txt
 FILE TYPE:OPEN/CLOSE   UNIT 1041   STATUS:OLD                 
 FORMAT:FORMATTED              ACCESS:SEQUENTIAL          
 ACTION:READ                


 REUSING SFRS FROM LAST STRESS PERIOD
 UBDSV1 SAVING     FLOW-JA-FACE ON UNIT   1033 AT TIME STEP      1, STRESS PERIOD      2
 UBDSV06 SAVING              WEL IN MODEL FREYBERG6        PACKAGE FREYBERG6       CONNECTED TO MODEL FREYBERG6        PACKAGE WEL              ON UNIT   1033 AT TIME STEP      1, STRESS PERIOD      2
 UBDSV06 SAVING              GHB IN MODEL FREYBERG6        PACKAGE FREYBERG6       CONNECTED TO MODEL FREYBERG6        PACKAGE GHB              ON UNIT   1033 AT TIME STEP      1, STRESS PERIOD      2
 UBDSV06 SAVING             RCHA IN MODEL FREYBERG6        PACKAGE FREYBERG6       CONNECTED TO MODEL FREYBERG6        PACKAGE RCH              ON UNIT   1033 AT TIME STEP      1, STRESS PERIOD      2
 UBDSV06 SAVING              SFR IN MODEL FREYBERG6        PACKAGE FREYBERG6       CONNECTED TO MODEL FREYBERG6        PACKAGE SFR_1            ON UNIT   1033 AT TIME STEP      1, STRESS PERIOD      2

 WEL PACKAGE (WEL) FLOW RATES   PERIOD      2   STEP        1
 -----------------------------------------------
   NUMBER   CELLID                    RATE      
 -----------------------------------------------
     1      (1,10,17)            -300.00000     
     2      (1,12,14)            -300.00000     
     3      (1,21,15)            -300.00000     
     4      (1,27,11)            -300.00000     
     5      (1,30,7)             -300.00000     
     6      (1,35,13)            -300.00000     
     7      (1,25,5)              0.0000000     
 -----------------------------------------------




 GHB PACKAGE (GHB) FLOW RATES   PERIOD      2   STEP        1
 -----------------------------------------------
   NUMBER   CELLID                    RATE      
 -----------------------------------------------
     1      (1,40,6)             -44.765558     
     2      (1,40,7)             -43.482271     
     3      (1,40,8)             -41.302762     
     4      (1,40,9)             -38.535380     
     5      (1,40,10)            -35.427797     
     6      (1,40,11)            -32.090191     
     7      (1,40,12)            -28.674790     
     8      (1,40,13)            -25.347827     
     9      (1,40,14)            -22.295983     
     10     (1,40,15)            -19.546476     
 -----------------------------------------------




 HEAD WILL BE SAVED ON UNIT 1034 AT END OF TIME STEP    1, STRESS PERIOD    2


  SFR_1 BUDGET FOR ENTIRE MODEL AT END OF TIME STEP    1, STRESS PERIOD   2
  ------------------------------------------------------------------------------

     CUMULATIVE SFR_1      L**3       RATES FOR THIS TIME STEP      L**3/T
     ------------------                 ------------------------

           IN:                                      IN:
           ---                                      ---
                 GWF =     8038278.0957                   GWF =        1998.4080
            RAINFALL =           0.0000              RAINFALL =           0.0000
         EVAPORATION =           0.0000           EVAPORATION =           0.0000
              RUNOFF =           0.0000                RUNOFF =           0.0000
          EXT-INFLOW =     1841750.0000            EXT-INFLOW =         500.0000
         EXT-OUTFLOW =           0.0000           EXT-OUTFLOW =           0.0000
             STORAGE =           0.0000               STORAGE =           0.0000

            TOTAL IN =     9880028.0957              TOTAL IN =        2498.4080

          OUT:                                     OUT:
          ----                                     ----
                 GWF =           0.0000                   GWF =           0.0000
            RAINFALL =           0.0000              RAINFALL =           0.0000
         EVAPORATION =           0.0000           EVAPORATION =           0.0000
              RUNOFF =           0.0000                RUNOFF =           0.0000
          EXT-INFLOW =           0.0000            EXT-INFLOW =           0.0000
         EXT-OUTFLOW =     9880028.0957           EXT-OUTFLOW =        2498.4080
             STORAGE =           0.0000               STORAGE =           0.0000

           TOTAL OUT =     9880028.0957             TOTAL OUT =        2498.4080

            IN - OUT =      -1.8626E-09              IN - OUT =       4.5475E-13

 PERCENT DISCREPANCY =          -0.00     PERCENT DISCREPANCY =           0.00



  VOLUME BUDGET FOR ENTIRE MODEL AT END OF TIME STEP    1, STRESS PERIOD   2
  ---------------------------------------------------------------------------------------------------

     CUMULATIVE VOLUME      L**3       RATES FOR THIS TIME STEP      L**3/T          PACKAGE NAME    
     ------------------                 ------------------------                     ----------------

           IN:                                      IN:
           ---                                      ---
              STO-SS =         161.6671                STO-SS =           1.3356     STORAGE                          
              STO-SY =       50387.2010                STO-SY =         414.0239     STORAGE                          
                 WEL =           0.0000                   WEL =           0.0000     WEL                              
                 GHB =           0.0000                   GHB =           0.0000     GHB                              
                RCHA =    12365797.2651                  RCHA =        3931.4581     RCH                              
                 SFR =           0.0000                   SFR =           0.0000     SFR_1                            

            TOTAL IN =    12416346.1331              TOTAL IN =        4346.8176

          OUT:                                     OUT:
          ----                                     ----
              STO-SS =         683.7050                STO-SS =           0.6908     STORAGE                          
              STO-SY =      220670.6992                STO-SY =         221.2082     STORAGE                          
                 WEL =     3343050.0000                   WEL =        1800.0000     WEL                              
                 GHB =     1194917.6061                   GHB =         331.4690     GHB                              
                RCHA =           0.0000                  RCHA =           0.0000     RCH                              
                 SFR =     7706121.5689                   SFR =        1993.5549     SFR_1                            

           TOTAL OUT =    12465443.5792             TOTAL OUT =        4346.9230

            IN - OUT =      -49097.4461              IN - OUT =          -0.1054

 PERCENT DISCREPANCY =          -0.39     PERCENT DISCREPANCY =          -0.00




         TIME SUMMARY AT END OF TIME STEP    1 IN STRESS PERIOD    2
                    SECONDS     MINUTES      HOURS       DAYS        YEARS
                    -----------------------------------------------------------
   TIME STEP LENGTH 2.67840E+06  44640.      744.00      31.000     8.48734E-02
 STRESS PERIOD TIME 2.67840E+06  44640.      744.00      31.000     8.48734E-02
         TOTAL TIME 3.18254E+08 5.30424E+06  88404.      3683.5      10.085    


end timestep


start timestep kper="3" kstp="1" mode="normal"


 OUTPUT CONTROL FOR STRESS PERIOD 3 IS REPEATED USING SETTINGS FROM A PREVIOUS STRESS PERIOD.


 STRESS PERIOD 3 IS TRANSIENT


 OPENED freyberg6.wel_stress_period_data_3.txt
 FILE TYPE:OPEN/CLOSE   UNIT 1042   STATUS:OLD                 
 FORMAT:FORMATTED              ACCESS:SEQUENTIAL          
 ACTION:READ                

 ---------------------------------------------------
  WEL NO.    LAYER    ROW     COL     STRESS RATE   
 ---------------------------------------------------
     1         1      10      17    -300.000000     
     2         1      12      14    -300.000000     
     3         1      21      15    -300.000000     
     4         1      27      11    -300.000000     
     5         1      30       7    -300.000000     
     6         1      35      13    -300.000000     
     7         1      25       5     0.00000000     
 ---------------------------------------------------



 REUSING GHBS FROM LAST STRESS PERIOD

 OPENED freyberg6.rch_recharge_3.txt
 FILE TYPE:OPEN/CLOSE   UNIT 1043   STATUS:OLD                 
 FORMAT:FORMATTED              ACCESS:SEQUENTIAL          
 ACTION:READ                


 REUSING SFRS FROM LAST STRESS PERIOD
 UBDSV1 SAVING     FLOW-JA-FACE ON UNIT   1033 AT TIME STEP      1, STRESS PERIOD      3
 UBDSV06 SAVING              WEL IN MODEL FREYBERG6        PACKAGE FREYBERG6       CONNECTED TO MODEL FREYBERG6        PACKAGE WEL              ON UNIT   1033 AT TIME STEP      1, STRESS PERIOD      3
 UBDSV06 SAVING              GHB IN MODEL FREYBERG6        PACKAGE FREYBERG6       CONNECTED TO MODEL FREYBERG6        PACKAGE GHB              ON UNIT   1033 AT TIME STEP      1, STRESS PERIOD      3
 UBDSV06 SAVING             RCHA IN MODEL FREYBERG6        PACKAGE FREYBERG6       CONNECTED TO MODEL FREYBERG6        PACKAGE RCH              ON UNIT   1033 AT TIME STEP      1, STRESS PERIOD      3
 UBDSV06 SAVING              SFR IN MODEL FREYBERG6        PACKAGE FREYBERG6       CONNECTED TO MODEL FREYBERG6        PACKAGE SFR_1            ON UNIT   1033 AT TIME STEP      1, STRESS PERIOD      3

 WEL PACKAGE (WEL) FLOW RATES   PERIOD      3   STEP        1
 -----------------------------------------------
   NUMBER   CELLID                    RATE      
 -----------------------------------------------
     1      (1,10,17)            -300.00000     
     2      (1,12,14)            -300.00000     
     3      (1,21,15)            -300.00000     
     4      (1,27,11)            -300.00000     
     5      (1,30,7)             -300.00000     
     6      (1,35,13)            -300.00000     
     7      (1,25,5)              0.0000000     
 -----------------------------------------------




 GHB PACKAGE (GHB) FLOW RATES   PERIOD      3   STEP        1
 -----------------------------------------------
   NUMBER   CELLID                    RATE      
 -----------------------------------------------
     1      (1,40,6)             -48.556318     
     2      (1,40,7)             -47.120102     
     3      (1,40,8)             -44.615417     
     4      (1,40,9)             -41.591633     
     5      (1,40,10)            -38.256785     
     6      (1,40,11)            -34.701202     
     7      (1,40,12)            -31.093486     
     8      (1,40,13)            -27.618865     
     9      (1,40,14)            -24.453910     
     10     (1,40,15)            -21.552503     
 -----------------------------------------------




 HEAD WILL BE SAVED ON UNIT 1034 AT END OF TIME STEP    1, STRESS PERIOD    3


  SFR_1 BUDGET FOR ENTIRE MODEL AT END OF TIME STEP    1, STRESS PERIOD   3
  ------------------------------------------------------------------------------

     CUMULATIVE SFR_1      L**3       RATES FOR THIS TIME STEP      L**3/T
     ------------------                 ------------------------

           IN:                                      IN:
           ---                                      ---
                 GWF =     8099781.2128                   GWF =        2120.7971
            RAINFALL =           0.0000              RAINFALL =           0.0000
         EVAPORATION =           0.0000           EVAPORATION =           0.0000
              RUNOFF =           0.0000                RUNOFF =           0.0000
          EXT-INFLOW =     1856250.0000            EXT-INFLOW =         500.0000
         EXT-OUTFLOW =           0.0000           EXT-OUTFLOW =           0.0000
             STORAGE =           0.0000               STORAGE =           0.0000

            TOTAL IN =     9956031.2128              TOTAL IN =        2620.7971

          OUT:                                     OUT:
          ----                                     ----
                 GWF =           0.0000                   GWF =           0.0000
            RAINFALL =           0.0000              RAINFALL =           0.0000
         EVAPORATION =           0.0000           EVAPORATION =           0.0000
              RUNOFF =           0.0000                RUNOFF =           0.0000
          EXT-INFLOW =           0.0000            EXT-INFLOW =           0.0000
         EXT-OUTFLOW =     9956031.2128           EXT-OUTFLOW =        2620.7971
             STORAGE =           0.0000               STORAGE =           0.0000

           TOTAL OUT =     9956031.2128             TOTAL OUT =        2620.7971

            IN - OUT =           0.0000              IN - OUT =      -4.5475E-13

 PERCENT DISCREPANCY =           0.00     PERCENT DISCREPANCY =          -0.00



  VOLUME BUDGET FOR ENTIRE MODEL AT END OF TIME STEP    1, STRESS PERIOD   3
  ---------------------------------------------------------------------------------------------------

     CUMULATIVE VOLUME      L**3       RATES FOR THIS TIME STEP      L**3/T          PACKAGE NAME    
     ------------------                 ------------------------                     ----------------

           IN:                                      IN:
           ---                                      ---
              STO-SS =         162.2556                STO-SS =       2.0294E-02     STORAGE                          
              STO-SY =       50574.0557                STO-SY =           6.4433     STORAGE                          
                 WEL =           0.0000                   WEL =           0.0000     WEL                              
                 GHB =           0.0000                   GHB =           0.0000     GHB                              
                RCHA =    12520578.7856                  RCHA =        5337.2938     RCH                              
                 SFR =           0.0000                   SFR =           0.0000     SFR_1                            

            TOTAL IN =    12571315.0969              TOTAL IN =        5343.7574

          OUT:                                     OUT:
          ----                                     ----
              STO-SS =         780.6719                STO-SS =           3.3437     STORAGE                          
              STO-SY =      251253.8546                STO-SY =        1054.5916     STORAGE                          
                 WEL =     3395250.0000                   WEL =        1800.0000     WEL                              
                 GHB =     1205344.8525                   GHB =         359.5602     GHB                              
                RCHA =           0.0000                  RCHA =           0.0000     RCH                              
                 SFR =     7767780.7237                   SFR =        2126.1778     SFR_1                            

           TOTAL OUT =    12620410.1027             TOTAL OUT =        5343.6732

            IN - OUT =      -49095.0058              IN - OUT =       8.4148E-02

 PERCENT DISCREPANCY =          -0.39     PERCENT DISCREPANCY =           0.00




         TIME SUMMARY AT END OF TIME STEP    1 IN STRESS PERIOD    3
                    SECONDS     MINUTES      HOURS       DAYS        YEARS
                    -----------------------------------------------------------
   TIME STEP LENGTH 2.50560E+06  41760.      696.00      29.000     7.93977E-02
 STRESS PERIOD TIME 2.50560E+06  41760.      696.00      29.000     7.93977E-02
         TOTAL TIME 3.20760E+08 5.34600E+06  89100.      3712.5      10.164    


end timestep


start timestep kper="4" kstp="1" mode="normal"


 OUTPUT CONTROL FOR STRESS PERIOD 4 IS REPEATED USING SETTINGS FROM A PREVIOUS STRESS PERIOD.


 STRESS PERIOD 4 IS TRANSIENT


 OPENED freyberg6.wel_stress_period_data_4.txt
 FILE TYPE:OPEN/CLOSE   UNIT 1044   STATUS:OLD                 
 FORMAT:FORMATTED              ACCESS:SEQUENTIAL          
 ACTION:READ                

 ---------------------------------------------------
  WEL NO.    LAYER    ROW     COL     STRESS RATE   
 ---------------------------------------------------
     1         1      10      17    -300.000000     
     2         1      12      14    -300.000000     
     3         1      21      15    -300.000000     
     4         1      27      11    -300.000000     
     5         1      30       7    -300.000000     
     6         1      35      13    -300.000000     
     7         1      25       5     0.00000000     
 ---------------------------------------------------



 REUSING GHBS FROM LAST STRESS PERIOD

 OPENED freyberg6.rch_recharge_4.txt
 FILE TYPE:OPEN/CLOSE   UNIT 1045   STATUS:OLD                 
 FORMAT:FORMATTED              ACCESS:SEQUENTIAL          
 ACTION:READ                


 REUSING SFRS FROM LAST STRESS PERIOD
 UBDSV1 SAVING     FLOW-JA-FACE ON UNIT   1033 AT TIME STEP      1, STRESS PERIOD      4
 UBDSV06 SAVING              WEL IN MODEL FREYBERG6        PACKAGE FREYBERG6       CONNECTED TO MODEL FREYBERG6        PACKAGE WEL              ON UNIT   1033 AT TIME STEP      1, STRESS PERIOD      4
 UBDSV06 SAVING              GHB IN MODEL FREYBERG6        PACKAGE FREYBERG6       CONNECTED TO MODEL FREYBERG6        PACKAGE GHB              ON UNIT   1033 AT TIME STEP      1, STRESS PERIOD      4
 UBDSV06 SAVING             RCHA IN MODEL FREYBERG6        PACKAGE FREYBERG6       CONNECTED TO MODEL FREYBERG6        PACKAGE RCH              ON UNIT   1033 AT TIME STEP      1, STRESS PERIOD      4
 UBDSV06 SAVING              SFR IN MODEL FREYBERG6        PACKAGE FREYBERG6       CONNECTED TO MODEL FREYBERG6        PACKAGE SFR_1            ON UNIT   1033 AT TIME STEP      1, STRESS PERIOD      4

 WEL PACKAGE (WEL) FLOW RATES   PERIOD      4   STEP        1
 -----------------------------------------------
   NUMBER   CELLID                    RATE      
 -----------------------------------------------
     1      (1,10,17)            -300.00000     
     2      (1,12,14)            -300.00000     
     3      (1,21,15)            -300.00000     
     4      (1,27,11)            -300.00000     
     5      (1,30,7)             -300.00000     
     6      (1,35,13)            -300.00000     
     7      (1,25,5)              0.0000000     
 -----------------------------------------------




 GHB PACKAGE (GHB) FLOW RATES   PERIOD      4   STEP        1
 -----------------------------------------------
   NUMBER   CELLID                    RATE      
 -----------------------------------------------
     1      (1,40,6)             -52.780243     
     2      (1,40,7)             -51.365953     
     3      (1,40,8)             -48.863740     
     4      (1,40,9)             -45.533367     
     5      (1,40,10)            -41.896181     
     6      (1,40,11)            -38.112689     
     7      (1,40,12)            -34.298073     
     8      (1,40,13)            -30.613116     
     9      (1,40,14)            -27.209134     
     10     (1,40,15)            -23.993113     
 -----------------------------------------------




 HEAD WILL BE SAVED ON UNIT 1034 AT END OF TIME STEP    1, STRESS PERIOD    4


  SFR_1 BUDGET FOR ENTIRE MODEL AT END OF TIME STEP    1, STRESS PERIOD   4
  ------------------------------------------------------------------------------

     CUMULATIVE SFR_1      L**3       RATES FOR THIS TIME STEP      L**3/T
     ------------------                 ------------------------

           IN:                                      IN:
           ---                                      ---
                 GWF =     8172433.0729                   GWF =        2343.6084
            RAINFALL =           0.0000              RAINFALL =           0.0000
         EVAPORATION =           0.0000           EVAPORATION =           0.0000
              RUNOFF =           0.0000                RUNOFF =           0.0000
          EXT-INFLOW =     1871750.0000            EXT-INFLOW =         500.0000
         EXT-OUTFLOW =           0.0000           EXT-OUTFLOW =           0.0000
             STORAGE =           0.0000               STORAGE =           0.0000

            TOTAL IN =    10044183.0729              TOTAL IN =        2843.6084

          OUT:                                     OUT:
          ----                                     ----
                 GWF =           0.0000                   GWF =           0.0000
            RAINFALL =           0.0000              RAINFALL =           0.0000
         EVAPORATION =           0.0000           EVAPORATION =           0.0000
              RUNOFF =           0.0000                RUNOFF =           0.0000
          EXT-INFLOW =           0.0000            EXT-INFLOW =           0.0000
         EXT-OUTFLOW =    10044183.0729           EXT-OUTFLOW =        2843.6084
             STORAGE =           0.0000               STORAGE =           0.0000

           TOTAL OUT =    10044183.0729             TOTAL OUT =        2843.6084

            IN - OUT =      -1.8626E-09              IN - OUT =           0.0000

 PERCENT DISCREPANCY =          -0.00     PERCENT DISCREPANCY =           0.00



  VOLUME BUDGET FOR ENTIRE MODEL AT END OF TIME STEP    1, STRESS PERIOD   4
  ---------------------------------------------------------------------------------------------------

     CUMULATIVE VOLUME      L**3       RATES FOR THIS TIME STEP      L**3/T          PACKAGE NAME    
     ------------------                 ------------------------                     ----------------

           IN:                                      IN:
           ---                                      ---
              STO-SS =         162.2556                STO-SS =           0.0000     STORAGE                          
              STO-SY =       50574.0557                STO-SY =           0.0000     STORAGE                          
                 WEL =           0.0000                   WEL =           0.0000     WEL                              
                 GHB =           0.0000                   GHB =           0.0000     GHB                              
                RCHA =    12713979.2122                  RCHA =        6238.7234     RCH                              
                 SFR =           0.0000                   SFR =           0.0000     SFR_1                            

            TOTAL IN =    12764715.5235              TOTAL IN =        6238.7234

          OUT:                                     OUT:
          ----                                     ----
              STO-SS =         947.3183                STO-SS =           5.3757     STORAGE                          
              STO-SY =      303501.9897                STO-SY =        1685.4237     STORAGE                          
                 WEL =     3451050.0000                   WEL =        1800.0000     WEL                              
                 GHB =     1217579.4864                   GHB =         394.6656     GHB                              
                RCHA =           0.0000                  RCHA =           0.0000     RCH                              
                 SFR =     7840726.4837                   SFR =        2353.0890     SFR_1                            

           TOTAL OUT =    12813805.2781             TOTAL OUT =        6238.5540

            IN - OUT =      -49089.7546              IN - OUT =           0.1694

 PERCENT DISCREPANCY =          -0.38     PERCENT DISCREPANCY =           0.00




         TIME SUMMARY AT END OF TIME STEP    1 IN STRESS PERIOD    4
                    SECONDS     MINUTES      HOURS       DAYS        YEARS
                    -----------------------------------------------------------
   TIME STEP LENGTH 2.67840E+06  44640.      744.00      31.000     8.48734E-02
 STRESS PERIOD TIME 2.67840E+06  44640.      744.00      31.000     8.48734E-02
         TOTAL TIME 3.23438E+08 5.39064E+06  89844.      3743.5      10.249    


end timestep


start timestep kper="5" kstp="1" mode="normal"


 OUTPUT CONTROL FOR STRESS PERIOD 5 IS REPEATED USING SETTINGS FROM A PREVIOUS STRESS PERIOD.


 STRESS PERIOD 5 IS TRANSIENT


 OPENED freyberg6.wel_stress_period_data_5.txt
 FILE TYPE:OPEN/CLOSE   UNIT 1046   STATUS:OLD                 
 FORMAT:FORMATTED              ACCESS:SEQUENTIAL          
 ACTION:READ                

 ---------------------------------------------------
  WEL NO.    LAYER    ROW     COL     STRESS RATE   
 ---------------------------------------------------
     1         1      10      17    -300.000000     
     2         1      12      14    -300.000000     
     3         1      21      15    -300.000000     
     4         1      27      11    -300.000000     
     5         1      30       7    -300.000000     
     6         1      35      13    -300.000000     
     7         1      25       5     0.00000000     
 ---------------------------------------------------



 REUSING GHBS FROM LAST STRESS PERIOD

 OPENED freyberg6.rch_recharge_5.txt
 FILE TYPE:OPEN/CLOSE   UNIT 1047   STATUS:OLD                 
 FORMAT:FORMATTED              ACCESS:SEQUENTIAL          
 ACTION:READ                


 REUSING SFRS FROM LAST STRESS PERIOD
 UBDSV1 SAVING     FLOW-JA-FACE ON UNIT   1033 AT TIME STEP      1, STRESS PERIOD      5
 UBDSV06 SAVING              WEL IN MODEL FREYBERG6        PACKAGE FREYBERG6       CONNECTED TO MODEL FREYBERG6        PACKAGE WEL              ON UNIT   1033 AT TIME STEP      1, STRESS PERIOD      5
 UBDSV06 SAVING              GHB IN MODEL FREYBERG6        PACKAGE FREYBERG6       CONNECTED TO MODEL FREYBERG6        PACKAGE GHB              ON UNIT   1033 AT TIME STEP      1, STRESS PERIOD      5
 UBDSV06 SAVING             RCHA IN MODEL FREYBERG6        PACKAGE FREYBERG6       CONNECTED TO MODEL FREYBERG6        PACKAGE RCH              ON UNIT   1033 AT TIME STEP      1, STRESS PERIOD      5
 UBDSV06 SAVING              SFR IN MODEL FREYBERG6        PACKAGE FREYBERG6       CONNECTED TO MODEL FREYBERG6        PACKAGE SFR_1            ON UNIT   1033 AT TIME STEP      1, STRESS PERIOD      5

 WEL PACKAGE (WEL) FLOW RATES   PERIOD      5   STEP        1
 -----------------------------------------------
   NUMBER   CELLID                    RATE      
 -----------------------------------------------
     1      (1,10,17)            -300.00000     
     2      (1,12,14)            -300.00000     
     3      (1,21,15)            -300.00000     
     4      (1,27,11)            -300.00000     
     5      (1,30,7)             -300.00000     
     6      (1,35,13)            -300.00000     
     7      (1,25,5)              0.0000000     
 -----------------------------------------------




 GHB PACKAGE (GHB) FLOW RATES   PERIOD      5   STEP        1
 -----------------------------------------------
   NUMBER   CELLID                    RATE      
 -----------------------------------------------
     1      (1,40,6)             -55.916243     
     2      (1,40,7)             -54.390483     
     3      (1,40,8)             -51.753150     
     4      (1,40,9)             -48.400108     
     5      (1,40,10)            -44.547584     
     6      (1,40,11)            -40.559739     
     7      (1,40,12)            -36.553206     
     8      (1,40,13)            -32.661486     
     9      (1,40,14)            -29.021917     
     10     (1,40,15)            -25.529955     
 -----------------------------------------------




 HEAD WILL BE SAVED ON UNIT 1034 AT END OF TIME STEP    1, STRESS PERIOD    5


  SFR_1 BUDGET FOR ENTIRE MODEL AT END OF TIME STEP    1, STRESS PERIOD   5
  ------------------------------------------------------------------------------

     CUMULATIVE SFR_1      L**3       RATES FOR THIS TIME STEP      L**3/T
     ------------------                 ------------------------

           IN:                                      IN:
           ---                                      ---
                 GWF =     8248208.6704                   GWF =        2525.8533
            RAINFALL =           0.0000              RAINFALL =           0.0000
         EVAPORATION =           0.0000           EVAPORATION =           0.0000
              RUNOFF =           0.0000                RUNOFF =           0.0000
          EXT-INFLOW =     1886750.0000            EXT-INFLOW =         500.0000
         EXT-OUTFLOW =           0.0000           EXT-OUTFLOW =           0.0000
             STORAGE =           0.0000               STORAGE =           0.0000

            TOTAL IN =    10134958.6704              TOTAL IN =        3025.8533

          OUT:                                     OUT:
          ----                                     ----
                 GWF =           0.0000                   GWF =           0.0000
            RAINFALL =           0.0000              RAINFALL =           0.0000
         EVAPORATION =           0.0000           EVAPORATION =           0.0000
              RUNOFF =           0.0000                RUNOFF =           0.0000
          EXT-INFLOW =           0.0000            EXT-INFLOW =           0.0000
         EXT-OUTFLOW =    10134958.6704           EXT-OUTFLOW =        3025.8533
             STORAGE =           0.0000               STORAGE =           0.0000

           TOTAL OUT =    10134958.6704             TOTAL OUT =        3025.8533

            IN - OUT =      -1.8626E-09              IN - OUT =       4.5475E-13

 PERCENT DISCREPANCY =          -0.00     PERCENT DISCREPANCY =           0.00



  VOLUME BUDGET FOR ENTIRE MODEL AT END OF TIME STEP    1, STRESS PERIOD   5
  ---------------------------------------------------------------------------------------------------

     CUMULATIVE VOLUME      L**3       RATES FOR THIS TIME STEP      L**3/T          PACKAGE NAME    
     ------------------                 ------------------------                     ----------------

           IN:                                      IN:
           ---                                      ---
              STO-SS =         162.2556                STO-SS =           0.0000     STORAGE                          
              STO-SY =       50574.0557                STO-SY =           0.0000     STORAGE                          
                 WEL =           0.0000                   WEL =           0.0000     WEL                              
                 GHB =           0.0000                   GHB =           0.0000     GHB                              
                RCHA =    12905484.5362                  RCHA =        6383.5108     RCH                              
                 SFR =           0.0000                   SFR =           0.0000     SFR_1                            

            TOTAL IN =    12956220.8475              TOTAL IN =        6383.5108

          OUT:                                     OUT:
          ----                                     ----
              STO-SS =        1103.4953                STO-SS =           5.2059     STORAGE                          
              STO-SY =      352266.3014                STO-SY =        1625.4771     STORAGE                          
                 WEL =     3505050.0000                   WEL =        1800.0000     WEL                              
                 GHB =     1230159.5025                   GHB =         419.3339     GHB                              
                RCHA =           0.0000                  RCHA =           0.0000     RCH                              
                 SFR =     7916726.3347                   SFR =        2533.3284     SFR_1                            

           TOTAL OUT =    13005305.6339             TOTAL OUT =        6383.3452

            IN - OUT =      -49084.7864              IN - OUT =           0.1656

 PERCENT DISCREPANCY =          -0.38     PERCENT DISCREPANCY =           0.00




         TIME SUMMARY AT END OF TIME STEP    1 IN STRESS PERIOD    5
                    SECONDS     MINUTES      HOURS       DAYS        YEARS
                    -----------------------------------------------------------
   TIME STEP LENGTH 2.59200E+06  43200.      720.00      30.000     8.21355E-02
 STRESS PERIOD TIME 2.59200E+06  43200.      720.00      30.000     8.21355E-02
         TOTAL TIME 3.26030E+08 5.43384E+06  90564.      3773.5      10.331    


end timestep


start timestep kper="6" kstp="1" mode="normal"


 OUTPUT CONTROL FOR STRESS PERIOD 6 IS REPEATED USING SETTINGS FROM A PREVIOUS STRESS PERIOD.


 STRESS PERIOD 6 IS TRANSIENT


 OPENED freyberg6.wel_stress_period_data_6.txt
 FILE TYPE:OPEN/CLOSE   UNIT 1048   STATUS:OLD                 
 FORMAT:FORMATTED              ACCESS:SEQUENTIAL          
 ACTION:READ                

 ---------------------------------------------------
  WEL NO.    LAYER    ROW     COL     STRESS RATE   
 ---------------------------------------------------
     1         1      10      17    -300.000000     
     2         1      12      14    -300.000000     
     3         1      21      15    -300.000000     
     4         1      27      11    -300.000000     
     5         1      30       7    -300.000000     
     6         1      35      13    -300.000000     
     7         1      25       5     0.00000000     
 ---------------------------------------------------



 REUSING GHBS FROM LAST STRESS PERIOD

 OPENED freyberg6.rch_recharge_6.txt
 FILE TYPE:OPEN/CLOSE   UNIT 1049   STATUS:OLD                 
 FORMAT:FORMATTED              ACCESS:SEQUENTIAL          
 ACTION:READ                


 REUSING SFRS FROM LAST STRESS PERIOD
 UBDSV1 SAVING     FLOW-JA-FACE ON UNIT   1033 AT TIME STEP      1, STRESS PERIOD      6
 UBDSV06 SAVING              WEL IN MODEL FREYBERG6        PACKAGE FREYBERG6       CONNECTED TO MODEL FREYBERG6        PACKAGE WEL              ON UNIT   1033 AT TIME STEP      1, STRESS PERIOD      6
 UBDSV06 SAVING              GHB IN MODEL FREYBERG6        PACKAGE FREYBERG6       CONNECTED TO MODEL FREYBERG6        PACKAGE GHB              ON UNIT   1033 AT TIME STEP      1, STRESS PERIOD      6
 UBDSV06 SAVING             RCHA IN MODEL FREYBERG6        PACKAGE FREYBERG6       CONNECTED TO MODEL FREYBERG6        PACKAGE RCH              ON UNIT   1033 AT TIME STEP      1, STRESS PERIOD      6
 UBDSV06 SAVING              SFR IN MODEL FREYBERG6        PACKAGE FREYBERG6       CONNECTED TO MODEL FREYBERG6        PACKAGE SFR_1            ON UNIT   1033 AT TIME STEP      1, STRESS PERIOD      6

 WEL PACKAGE (WEL) FLOW RATES   PERIOD      6   STEP        1
 -----------------------------------------------
   NUMBER   CELLID                    RATE      
 -----------------------------------------------
     1      (1,10,17)            -300.00000     
     2      (1,12,14)            -300.00000     
     3      (1,21,15)            -300.00000     
     4      (1,27,11)            -300.00000     
     5      (1,30,7)             -300.00000     
     6      (1,35,13)            -300.00000     
     7      (1,25,5)              0.0000000     
 -----------------------------------------------




 GHB PACKAGE (GHB) FLOW RATES   PERIOD      6   STEP        1
 -----------------------------------------------
   NUMBER   CELLID                    RATE      
 -----------------------------------------------
     1      (1,40,6)             -56.165694     
     2      (1,40,7)             -54.666434     
     3      (1,40,8)             -52.045002     
     4      (1,40,9)             -48.683693     
     5      (1,40,10)            -44.908696     
     6      (1,40,11)            -40.857186     
     7      (1,40,12)            -36.743751     
     8      (1,40,13)            -32.731224     
     9      (1,40,14)            -28.977026     
     10     (1,40,15)            -25.402959     
 -----------------------------------------------




 HEAD WILL BE SAVED ON UNIT 1034 AT END OF TIME STEP    1, STRESS PERIOD    6


  SFR_1 BUDGET FOR ENTIRE MODEL AT END OF TIME STEP    1, STRESS PERIOD   6
  ------------------------------------------------------------------------------

     CUMULATIVE SFR_1      L**3       RATES FOR THIS TIME STEP      L**3/T
     ------------------                 ------------------------

           IN:                                      IN:
           ---                                      ---
                 GWF =     8328147.7345                   GWF =        2578.6795
            RAINFALL =           0.0000              RAINFALL =           0.0000
         EVAPORATION =           0.0000           EVAPORATION =           0.0000
              RUNOFF =           0.0000                RUNOFF =           0.0000
          EXT-INFLOW =     1902250.0000            EXT-INFLOW =         500.0000
         EXT-OUTFLOW =           0.0000           EXT-OUTFLOW =           0.0000
             STORAGE =           0.0000               STORAGE =           0.0000

            TOTAL IN =    10230397.7345              TOTAL IN =        3078.6795

          OUT:                                     OUT:
          ----                                     ----
                 GWF =           0.0000                   GWF =           0.0000
            RAINFALL =           0.0000              RAINFALL =           0.0000
         EVAPORATION =           0.0000           EVAPORATION =           0.0000
              RUNOFF =           0.0000                RUNOFF =           0.0000
          EXT-INFLOW =           0.0000            EXT-INFLOW =           0.0000
         EXT-OUTFLOW =    10230397.7345           EXT-OUTFLOW =        3078.6795
             STORAGE =           0.0000               STORAGE =           0.0000

           TOTAL OUT =    10230397.7345             TOTAL OUT =        3078.6795

            IN - OUT =           0.0000              IN - OUT =           0.0000

 PERCENT DISCREPANCY =           0.00     PERCENT DISCREPANCY =           0.00



  VOLUME BUDGET FOR ENTIRE MODEL AT END OF TIME STEP    1, STRESS PERIOD   6
  ---------------------------------------------------------------------------------------------------

     CUMULATIVE VOLUME      L**3       RATES FOR THIS TIME STEP      L**3/T          PACKAGE NAME    
     ------------------                 ------------------------                     ----------------

           IN:                                      IN:
           ---                                      ---
              STO-SS =         162.2651                STO-SS =       3.0502E-04     STORAGE                          
              STO-SY =       50576.8934                STO-SY =       9.1540E-02     STORAGE                          
                 WEL =           0.0000                   WEL =           0.0000     WEL                              
                 GHB =           0.0000                   GHB =           0.0000     GHB                              
                RCHA =    13082387.5695                  RCHA =        5706.5495     RCH                              
                 SFR =           0.0000                   SFR =           0.0000     SFR_1                            

            TOTAL IN =    13133126.7280              TOTAL IN =        5706.6413

          OUT:                                     OUT:
          ----                                     ----
              STO-SS =        1196.2990                STO-SS =           2.9937     STORAGE                          
              STO-SY =      380162.9541                STO-SY =         899.8920     STORAGE                          
                 WEL =     3560850.0000                   WEL =        1800.0000     WEL                              
                 GHB =     1243216.1342                   GHB =         421.1817     GHB                              
                RCHA =           0.0000                  RCHA =           0.0000     RCH                              
                 SFR =     7996736.8954                   SFR =        2580.9858     SFR_1                            

           TOTAL OUT =    13182162.2827             TOTAL OUT =        5705.0532

            IN - OUT =      -49035.5547              IN - OUT =           1.5881

 PERCENT DISCREPANCY =          -0.37     PERCENT DISCREPANCY =           0.03




         TIME SUMMARY AT END OF TIME STEP    1 IN STRESS PERIOD    6
                    SECONDS     MINUTES      HOURS       DAYS        YEARS
                    -----------------------------------------------------------
   TIME STEP LENGTH 2.67840E+06  44640.      744.00      31.000     8.48734E-02
 STRESS PERIOD TIME 2.67840E+06  44640.      744.00      31.000     8.48734E-02
         TOTAL TIME 3.28709E+08 5.47848E+06  91308.      3804.5      10.416    


end timestep


start timestep kper="7" kstp="1" mode="normal"


 OUTPUT CONTROL FOR STRESS PERIOD 7 IS REPEATED USING SETTINGS FROM A PREVIOUS STRESS PERIOD.


 STRESS PERIOD 7 IS TRANSIENT


 OPENED freyberg6.wel_stress_period_data_7.txt
 FILE TYPE:OPEN/CLOSE   UNIT 1050   STATUS:OLD                 
[...]
             STORAGE =           0.0000               STORAGE =           0.0000

           TOTAL OUT =    11268965.4275             TOTAL OUT =        1206.2680

            IN - OUT =      -5.5879E-09              IN - OUT =       4.5475E-13

 PERCENT DISCREPANCY =          -0.00     PERCENT DISCREPANCY =           0.00



  VOLUME BUDGET FOR ENTIRE MODEL AT END OF TIME STEP    1, STRESS PERIOD  23
  ---------------------------------------------------------------------------------------------------

     CUMULATIVE VOLUME      L**3       RATES FOR THIS TIME STEP      L**3/T          PACKAGE NAME    
     ------------------                 ------------------------                     ----------------

           IN:                                      IN:
           ---                                      ---
              STO-SS =        2556.4965                STO-SS =           8.7031     STORAGE                          
              STO-SY =      806459.0304                STO-SY =        2829.4601     STORAGE                          
                 WEL =           0.0000                   WEL =           0.0000     WEL                              
                 GHB =           0.0000                   GHB =           0.0000     GHB                              
                RCHA =    14563911.9238                  RCHA =         263.2447     RCH                              
                 SFR =        6365.5707                   SFR =          59.2198     SFR_1                            

            TOTAL IN =    15379293.0214              TOTAL IN =        3160.6278

          OUT:                                     OUT:
          ----                                     ----
              STO-SS =        1859.1828                STO-SS =           0.0000     STORAGE                          
              STO-SY =      585473.4597                STO-SY =           0.0000     STORAGE                          
                 WEL =     4694000.0000                   WEL =        2350.0000     WEL                              
                 GHB =     1375491.9865                   GHB =         118.2793     GHB                              
                RCHA =           0.0000                  RCHA =           0.0000     RCH                              
                 SFR =     8771614.1300                   SFR =         692.6113     SFR_1                            

           TOTAL OUT =    15428438.7590             TOTAL OUT =        3160.8906

            IN - OUT =      -49145.7375              IN - OUT =          -0.2628

 PERCENT DISCREPANCY =          -0.32     PERCENT DISCREPANCY =          -0.01




         TIME SUMMARY AT END OF TIME STEP    1 IN STRESS PERIOD   23
                    SECONDS     MINUTES      HOURS       DAYS        YEARS
                    -----------------------------------------------------------
   TIME STEP LENGTH 2.67840E+06  44640.      744.00      31.000     8.48734E-02
 STRESS PERIOD TIME 2.67840E+06  44640.      744.00      31.000     8.48734E-02
         TOTAL TIME 3.73464E+08 6.22440E+06 1.03740E+05  4322.5      11.834    


end timestep


start timestep kper="24" kstp="1" mode="normal"


 OUTPUT CONTROL FOR STRESS PERIOD 24 IS REPEATED USING SETTINGS FROM A PREVIOUS STRESS PERIOD.


 STRESS PERIOD 24 IS TRANSIENT


 OPENED freyberg6.wel_stress_period_data_24.txt
 FILE TYPE:OPEN/CLOSE   UNIT 1084   STATUS:OLD                 
 FORMAT:FORMATTED              ACCESS:SEQUENTIAL          
 ACTION:READ                

 ---------------------------------------------------
  WEL NO.    LAYER    ROW     COL     STRESS RATE   
 ---------------------------------------------------
     1         1      10      17    -300.000000     
     2         1      12      14    -300.000000     
     3         1      21      15    -300.000000     
     4         1      27      11    -300.000000     
     5         1      30       7    -300.000000     
     6         1      35      13    -300.000000     
     7         1      25       5    -550.000000     
 ---------------------------------------------------



 REUSING GHBS FROM LAST STRESS PERIOD

 OPENED freyberg6.rch_recharge_24.txt
 FILE TYPE:OPEN/CLOSE   UNIT 1085   STATUS:OLD                 
 FORMAT:FORMATTED              ACCESS:SEQUENTIAL          
 ACTION:READ                


 REUSING SFRS FROM LAST STRESS PERIOD
 UBDSV1 SAVING     FLOW-JA-FACE ON UNIT   1033 AT TIME STEP      1, STRESS PERIOD     24
 UBDSV06 SAVING              WEL IN MODEL FREYBERG6        PACKAGE FREYBERG6       CONNECTED TO MODEL FREYBERG6        PACKAGE WEL              ON UNIT   1033 AT TIME STEP      1, STRESS PERIOD     24
 UBDSV06 SAVING              GHB IN MODEL FREYBERG6        PACKAGE FREYBERG6       CONNECTED TO MODEL FREYBERG6        PACKAGE GHB              ON UNIT   1033 AT TIME STEP      1, STRESS PERIOD     24
 UBDSV06 SAVING             RCHA IN MODEL FREYBERG6        PACKAGE FREYBERG6       CONNECTED TO MODEL FREYBERG6        PACKAGE RCH              ON UNIT   1033 AT TIME STEP      1, STRESS PERIOD     24
 UBDSV06 SAVING              SFR IN MODEL FREYBERG6        PACKAGE FREYBERG6       CONNECTED TO MODEL FREYBERG6        PACKAGE SFR_1            ON UNIT   1033 AT TIME STEP      1, STRESS PERIOD     24

 WEL PACKAGE (WEL) FLOW RATES   PERIOD     24   STEP        1
 -----------------------------------------------
   NUMBER   CELLID                    RATE      
 -----------------------------------------------
     1      (1,10,17)            -300.00000     
     2      (1,12,14)            -300.00000     
     3      (1,21,15)            -300.00000     
     4      (1,27,11)            -300.00000     
     5      (1,30,7)             -300.00000     
     6      (1,35,13)            -300.00000     
     7      (1,25,5)             -550.00000     
 -----------------------------------------------




 GHB PACKAGE (GHB) FLOW RATES   PERIOD     24   STEP        1
 -----------------------------------------------
   NUMBER   CELLID                    RATE      
 -----------------------------------------------
     1      (1,40,6)             -17.133325     
     2      (1,40,7)             -16.241367     
     3      (1,40,8)             -14.668049     
     4      (1,40,9)             -12.642308     
     5      (1,40,10)            -10.391479     
     6      (1,40,11)            -8.1440218     
     7      (1,40,12)            -6.2013077     
     8      (1,40,13)            -4.8965647     
     9      (1,40,14)            -4.4619743     
     10     (1,40,15)            -4.8377496     
 -----------------------------------------------




 HEAD WILL BE SAVED ON UNIT 1034 AT END OF TIME STEP    1, STRESS PERIOD   24


  SFR_1 BUDGET FOR ENTIRE MODEL AT END OF TIME STEP    1, STRESS PERIOD  24
  ------------------------------------------------------------------------------

     CUMULATIVE SFR_1      L**3       RATES FOR THIS TIME STEP      L**3/T
     ------------------                 ------------------------

           IN:                                      IN:
           ---                                      ---
                 GWF =     9125160.2487                   GWF =         581.4940
            RAINFALL =           0.0000              RAINFALL =           0.0000
         EVAPORATION =           0.0000           EVAPORATION =           0.0000
              RUNOFF =           0.0000                RUNOFF =           0.0000
          EXT-INFLOW =     2176250.0000            EXT-INFLOW =         500.0000
         EXT-OUTFLOW =           0.0000           EXT-OUTFLOW =           0.0000
             STORAGE =           0.0000               STORAGE =           0.0000

            TOTAL IN =    11301410.2487              TOTAL IN =        1081.4940

          OUT:                                     OUT:
          ----                                     ----
                 GWF =        8703.2739                   GWF =          81.8691
            RAINFALL =           0.0000              RAINFALL =           0.0000
         EVAPORATION =           0.0000           EVAPORATION =           0.0000
              RUNOFF =           0.0000                RUNOFF =           0.0000
          EXT-INFLOW =           0.0000            EXT-INFLOW =           0.0000
         EXT-OUTFLOW =    11292706.9748           EXT-OUTFLOW =         999.6250
             STORAGE =           0.0000               STORAGE =           0.0000

           TOTAL OUT =    11301410.2487             TOTAL OUT =        1081.4940

            IN - OUT =      -5.5879E-09              IN - OUT =           0.0000

 PERCENT DISCREPANCY =          -0.00     PERCENT DISCREPANCY =           0.00



  VOLUME BUDGET FOR ENTIRE MODEL AT END OF TIME STEP    1, STRESS PERIOD  24
  ---------------------------------------------------------------------------------------------------

     CUMULATIVE VOLUME      L**3       RATES FOR THIS TIME STEP      L**3/T          PACKAGE NAME    
     ------------------                 ------------------------                     ----------------

           IN:                                      IN:
           ---                                      ---
              STO-SS =        2733.8870                STO-SS =           5.9130     STORAGE                          
              STO-SY =      864864.2884                STO-SY =        1946.8419     STORAGE                          
                 WEL =           0.0000                   WEL =           0.0000     WEL                              
                 GHB =           0.0000                   GHB =           0.0000     GHB                              
                RCHA =    14593576.1421                  RCHA =         988.8073     RCH                              
                 SFR =        8852.9496                   SFR =          82.9126     SFR_1                            

            TOTAL IN =    15470027.2670              TOTAL IN =        3024.4749

          OUT:                                     OUT:
          ----                                     ----
              STO-SS =        1859.1828                STO-SS =           0.0000     STORAGE                          
              STO-SY =      585473.4597                STO-SY =           0.0000     STORAGE                          
                 WEL =     4764500.0000                   WEL =        2350.0000     WEL                              
                 GHB =     1378480.5309                   GHB =          99.6181     GHB                              
                RCHA =           0.0000                  RCHA =           0.0000     RCH                              
                 SFR =     8788863.4749                   SFR =         574.9782     SFR_1                            

           TOTAL OUT =    15519176.6483             TOTAL OUT =        3024.5963

            IN - OUT =      -49149.3812              IN - OUT =          -0.1215

 PERCENT DISCREPANCY =          -0.32     PERCENT DISCREPANCY =          -0.00




         TIME SUMMARY AT END OF TIME STEP    1 IN STRESS PERIOD   24
                    SECONDS     MINUTES      HOURS       DAYS        YEARS
                    -----------------------------------------------------------
   TIME STEP LENGTH 2.59200E+06  43200.      720.00      30.000     8.21355E-02
 STRESS PERIOD TIME 2.59200E+06  43200.      720.00      30.000     8.21355E-02
         TOTAL TIME 3.76056E+08 6.26760E+06 1.04460E+05  4352.5      11.916    


end timestep


start timestep kper="25" kstp="1" mode="normal"


 OUTPUT CONTROL FOR STRESS PERIOD 25 IS REPEATED USING SETTINGS FROM A PREVIOUS STRESS PERIOD.


 STRESS PERIOD 25 IS TRANSIENT


 OPENED freyberg6.wel_stress_period_data_25.txt
 FILE TYPE:OPEN/CLOSE   UNIT 1086   STATUS:OLD                 
 FORMAT:FORMATTED              ACCESS:SEQUENTIAL          
 ACTION:READ                

 ---------------------------------------------------
  WEL NO.    LAYER    ROW     COL     STRESS RATE   
 ---------------------------------------------------
     1         1      10      17    -300.000000     
     2         1      12      14    -300.000000     
     3         1      21      15    -300.000000     
     4         1      27      11    -300.000000     
     5         1      30       7    -300.000000     
     6         1      35      13    -300.000000     
     7         1      25       5    -550.000000     
 ---------------------------------------------------



 REUSING GHBS FROM LAST STRESS PERIOD

 OPENED freyberg6.rch_recharge_25.txt
 FILE TYPE:OPEN/CLOSE   UNIT 1087   STATUS:OLD                 
 FORMAT:FORMATTED              ACCESS:SEQUENTIAL          
 ACTION:READ                


 REUSING SFRS FROM LAST STRESS PERIOD
 UBDSV1 SAVING     FLOW-JA-FACE ON UNIT   1033 AT TIME STEP      1, STRESS PERIOD     25
 UBDSV06 SAVING              WEL IN MODEL FREYBERG6        PACKAGE FREYBERG6       CONNECTED TO MODEL FREYBERG6        PACKAGE WEL              ON UNIT   1033 AT TIME STEP      1, STRESS PERIOD     25
 UBDSV06 SAVING              GHB IN MODEL FREYBERG6        PACKAGE FREYBERG6       CONNECTED TO MODEL FREYBERG6        PACKAGE GHB              ON UNIT   1033 AT TIME STEP      1, STRESS PERIOD     25
 UBDSV06 SAVING             RCHA IN MODEL FREYBERG6        PACKAGE FREYBERG6       CONNECTED TO MODEL FREYBERG6        PACKAGE RCH              ON UNIT   1033 AT TIME STEP      1, STRESS PERIOD     25
 UBDSV06 SAVING              SFR IN MODEL FREYBERG6        PACKAGE FREYBERG6       CONNECTED TO MODEL FREYBERG6        PACKAGE SFR_1            ON UNIT   1033 AT TIME STEP      1, STRESS PERIOD     25

 WEL PACKAGE (WEL) FLOW RATES   PERIOD     25   STEP        1
 -----------------------------------------------
   NUMBER   CELLID                    RATE      
 -----------------------------------------------
     1      (1,10,17)            -300.00000     
     2      (1,12,14)            -300.00000     
     3      (1,21,15)            -300.00000     
     4      (1,27,11)            -300.00000     
     5      (1,30,7)             -300.00000     
     6      (1,35,13)            -300.00000     
     7      (1,25,5)             -550.00000     
 -----------------------------------------------




 GHB PACKAGE (GHB) FLOW RATES   PERIOD     25   STEP        1
 -----------------------------------------------
   NUMBER   CELLID                    RATE      
 -----------------------------------------------
     1      (1,40,6)             -18.839674     
     2      (1,40,7)             -18.021803     
     3      (1,40,8)             -16.573918     
     4      (1,40,9)             -14.705322     
     5      (1,40,10)            -12.629377     
     6      (1,40,11)            -10.560922     
     7      (1,40,12)            -8.7837435     
     8      (1,40,13)            -7.6020562     
     9      (1,40,14)            -7.2019322     
     10     (1,40,15)            -7.4492935     
 -----------------------------------------------




 HEAD WILL BE SAVED ON UNIT 1034 AT END OF TIME STEP    1, STRESS PERIOD   25


  SFR_1 BUDGET FOR ENTIRE MODEL AT END OF TIME STEP    1, STRESS PERIOD  25
  ------------------------------------------------------------------------------

     CUMULATIVE SFR_1      L**3       RATES FOR THIS TIME STEP      L**3/T
     ------------------                 ------------------------

           IN:                                      IN:
           ---                                      ---
                 GWF =     9146709.2802                   GWF =         695.1300
            RAINFALL =           0.0000              RAINFALL =           0.0000
         EVAPORATION =           0.0000           EVAPORATION =           0.0000
              RUNOFF =           0.0000                RUNOFF =           0.0000
          EXT-INFLOW =     2191750.0000            EXT-INFLOW =         500.0000
         EXT-OUTFLOW =           0.0000           EXT-OUTFLOW =           0.0000
             STORAGE =           0.0000               STORAGE =           0.0000

            TOTAL IN =    11338459.2802              TOTAL IN =        1195.1300

          OUT:                                     OUT:
          ----                                     ----
                 GWF =       10618.4727                   GWF =          61.7806
            RAINFALL =           0.0000              RAINFALL =           0.0000
         EVAPORATION =           0.0000           EVAPORATION =           0.0000
              RUNOFF =           0.0000                RUNOFF =           0.0000
          EXT-INFLOW =           0.0000            EXT-INFLOW =           0.0000
         EXT-OUTFLOW =    11327840.8075           EXT-OUTFLOW =        1133.3494
             STORAGE =           0.0000               STORAGE =           0.0000

           TOTAL OUT =    11338459.2802             TOTAL OUT =        1195.1300

            IN - OUT =      -5.5879E-09              IN - OUT =      -4.5475E-13

 PERCENT DISCREPANCY =          -0.00     PERCENT DISCREPANCY =          -0.00



  VOLUME BUDGET FOR ENTIRE MODEL AT END OF TIME STEP    1, STRESS PERIOD  25
  ---------------------------------------------------------------------------------------------------

     CUMULATIVE VOLUME      L**3       RATES FOR THIS TIME STEP      L**3/T          PACKAGE NAME    
     ------------------                 ------------------------                     ----------------

           IN:                                      IN:
           ---                                      ---
              STO-SS =        2769.6874                STO-SS =           1.1549     STORAGE                          
              STO-SY =      877147.8335                STO-SY =         396.2434     STORAGE                          
                 WEL =           0.0000                   WEL =           0.0000     WEL                              
                 GHB =           0.0000                   GHB =           0.0000     GHB                              
                RCHA =    14687136.0153                  RCHA =        3018.0604     RCH                              
                 SFR =       10738.7158                   SFR =          60.8312     SFR_1                            

            TOTAL IN =    15577792.2520              TOTAL IN =        3476.2898

          OUT:                                     OUT:
          ----                                     ----
              STO-SS =        1888.8227                STO-SS =           0.9561     STORAGE                          
              STO-SY =      594802.9611                STO-SY =         300.9517     STORAGE                          
                 WEL =     4837350.0000                   WEL =        2350.0000     WEL                              
                 GHB =     1382273.9401                   GHB =         122.3680     GHB                              
                RCHA =           0.0000                  RCHA =           0.0000     RCH                              
                 SFR =     8810622.1768                   SFR =         701.8936     SFR_1                            

           TOTAL OUT =    15626937.9008             TOTAL OUT =        3476.1694

            IN - OUT =      -49145.6488              IN - OUT =           0.1204

 PERCENT DISCREPANCY =          -0.31     PERCENT DISCREPANCY =           0.00




         TIME SUMMARY AT END OF TIME STEP    1 IN STRESS PERIOD   25
                    SECONDS     MINUTES      HOURS       DAYS        YEARS
                    -----------------------------------------------------------
   TIME STEP LENGTH 2.67840E+06  44640.      744.00      31.000     8.48734E-02
 STRESS PERIOD TIME 2.67840E+06  44640.      744.00      31.000     8.48734E-02
         TOTAL TIME 3.78734E+08 6.31224E+06 1.05204E+05  4383.5      12.001    


end timestep

