                                   MODFLOW 6
                U.S. GEOLOGICAL SURVEY MODULAR HYDROLOGIC MODEL
                   VERSION 6.3.0 release candidate 07/30/2021
                               ***DEVELOP MODE***

   MODFLOW 6 compiled Oct 27 2021 07:53:31 with IFORT compiler (ver. 20.21.1)

This software is preliminary or provisional and is subject to 
revision. It is being provided to meet the need for timely best 
science. The software has not received final approval by the U.S. 
Geological Survey (USGS). No warranty, expressed or implied, is made 
by the USGS or the U.S. Government as to the functionality of the 
software and related material nor shall the fact of release 
constitute any such warranty. The software is provided on the 
condition that neither the USGS nor the U.S. Government shall be held 
liable for any damages resulting from the authorized or unauthorized 
use of the software.


System command used to initiate simulation:
E:\15_REPOS\00_BETAMI\bin\mf6.exe

MODFLOW was compiled using uniform precision.

Real Variables
  KIND: 8
  TINY (smallest non-zero value):    2.225074-308
  HUGE (largest value):    1.797693+308
  PRECISION: 15
  BIT SIZE: 64

Integer Variables
  KIND: 4
  HUGE (largest value): 2147483647
  BIT SIZE: 32

Long Integer Variables
  KIND: 8
  HUGE (largest value): 9223372036854775807
  BIT SIZE: 64

Logical Variables
  KIND: 4
  BIT SIZE: 32
 

 OPENED mfsim.nam
 FILE TYPE:NAM   UNIT 1001   STATUS:OLD                 
 FORMAT:FORMATTED              ACCESS:SEQUENTIAL          
 ACTION:READ                

 # File generated by Flopy version 3.8.2 on 02/21/2025 at 07:37:26.

 READING SIMULATION OPTIONS
 END OF SIMULATION OPTIONS

 READING SIMULATION TIMING

 OPENED simulation.tdis
 FILE TYPE:TDIS   UNIT 1002   STATUS:OLD                 
 FORMAT:FORMATTED              ACCESS:SEQUENTIAL          
 ACTION:READ                


 TDIS -- TEMPORAL DISCRETIZATION PACKAGE,
 VERSION 1 : 11/13/2014 - INPUT READ FROM UNIT 1002
 # File generated by Flopy version 3.8.2 on 02/21/2025 at 07:37:26.
 PROCESSING TDIS OPTIONS
    SIMULATION TIME UNIT IS DAYS
 END OF TDIS OPTIONS
 PROCESSING TDIS DIMENSIONS
    5 STRESS PERIOD(S) IN SIMULATION
 END OF TDIS DIMENSIONS
 PROCESSING TDIS PERIODDATA


 STRESS PERIOD     LENGTH       TIME STEPS     MULTIPLIER FOR DELT
 ----------------------------------------------------------------------------
        1         20.00000         10                    1.000
        2         20.00000         10                    1.000
        3         20.00000         10                    1.000
        4         500.0000         10                    1.000
        5         2000.000         50                    1.000
 END OF TDIS PERIODDATA
 END OF SIMULATION TIMING

 READING SIMULATION MODELS
    GWF6 model GWF_1 will be created as model 1
 END OF SIMULATION MODELS

 READING SIMULATION EXCHANGES
 END OF SIMULATION EXCHANGES

 READING SOLUTIONGROUP

 Creating solution: SLN_1           

 OPENED test001e_UZF_3lay.ims
 FILE TYPE:IMS   UNIT 1013   STATUS:OLD                 
 FORMAT:FORMATTED              ACCESS:SEQUENTIAL          
 ACTION:READ                

 END OF SIMULATION SOLUTIONGROUP

PROCESSING MODEL CONNECTIONS

 IMS -- ITERATIVE MODEL SOLUTION PACKAGE, VERSION 6, 4/28/2017
         INPUT READ FROM UNIT 1013
 # File generated by Flopy version 3.8.2 on 02/21/2025 at 07:37:26.

 PROCESSING IMS OPTIONS
 MODERATE OPTION:
 DEFAULT SOLVER INPUT VALUES REFLECT MODERETELY NONLINEAR MODEL
 END OF IMS OPTIONS

 PROCESSING IMS NONLINEAR
 END OF IMS NONLINEAR DATA
 **UNDER-RELAXATION WILL BE USED***
 
 ***IMS LINEAR SOLVER WILL BE USED***

 IMSLINEAR -- UNSTRUCTURED LINEAR SOLUTION PACKAGE, VERSION 8, 04/28/2017

 PROCESSING LINEAR DATA
 END OF LINEAR DATA
 
 OUTER ITERATION CONVERGENCE CRITERION    (DVCLOSE) =    0.100000E-05
 MAXIMUM NUMBER OF OUTER ITERATIONS        (MXITER) = 100
 SOLVER PRINTOUT INDEX                     (IPRIMS) = 1
 NONLINEAR ITERATION METHOD            (NONLINMETH) = 3
 LINEAR SOLUTION METHOD                   (LINMETH) = 1
 UNDER-RELAXATION WEIGHT REDUCTION FACTOR   (THETA) =    0.900000E+00
 UNDER-RELAXATION WEIGHT INCREASE INCREMENT (KAPPA) =    0.100000E-03
 UNDER-RELAXATION PREVIOUS HISTORY FACTOR   (GAMMA) =    0.000000E+00
 UNDER-RELAXATION MOMENTUM TERM         (AMOMENTUM) =    0.000000E+00

       SOLUTION BY THE BICONJUGATE-GRADIENT STABILIZED METHOD
 ------------------------------------------------------------------
 MAXIMUM OF 100 CALLS OF SOLUTION ROUTINE
 MAXIMUM OF 50 INTERNAL ITERATIONS PER CALL TO SOLUTION ROUTINE
 LINEAR ACCELERATION METHOD            = BCGS      
 MATRIX PRECONDITIONING TYPE           = MOD. INCOMPLETE LU  
 MATRIX SCALING APPROACH               = NO SCALING          
 MATRIX REORDERING APPROACH            = ORIGINAL ORDERING        
 NUMBER OF ORTHOGONALIZATIONS          = 0
 HEAD CHANGE CRITERION FOR CLOSURE     =    0.10000E-08
 RESIDUAL CHANGE CRITERION FOR CLOSURE =    0.10000E-04
 RESIDUAL CONVERGENCE OPTION           = 0
 RESIDUAL CONVERGENCE NORM             = INFINITY NORM   
 RELAXATION FACTOR                     =    0.97000E+00



 
    Solving:  Stress period:     1    Time step:     1
 
1
                            STRESS PERIOD NO. 1, LENGTH =   20.00000    
                            -----------------------------------------------
                            NUMBER OF TIME STEPS = 10
                            MULTIPLIER FOR DELT =     1.000
                            INITIAL TIME STEP SIZE =   2.000000    

 SLN_1 OUTER ITERATION SUMMARY
 ----------------------------------------------------------------------------------------------------------
                                OUTER      INNER                    STEP   MAXIMUM CHANGE MODEL-(CELLID) OR
 OUTER ITERATION STEP       ITERATION  ITERATION  MAXIMUM CHANGE SUCCESS             MODEL-PACKAGE-(NUMBER)
 ----------------------------------------------------------------------------------------------------------
 Model                              1          1       0.0000000       *                      1_GWF-(3,1,9)
 ----------------------------------------------------------------------------------------------------------


 1 CALLS TO NUMERICAL SOLUTION IN TIME STEP 1 STRESS PERIOD 1
 1 TOTAL ITERATIONS
 
    Solving:  Stress period:     1    Time step:     2
 

 SLN_1 OUTER ITERATION SUMMARY
 ----------------------------------------------------------------------------------------------------------
                                OUTER      INNER                    STEP   MAXIMUM CHANGE MODEL-(CELLID) OR
 OUTER ITERATION STEP       ITERATION  ITERATION  MAXIMUM CHANGE SUCCESS             MODEL-PACKAGE-(NUMBER)
 ----------------------------------------------------------------------------------------------------------
 Model                              1          1       0.0000000       *                      1_GWF-(3,1,9)
 ----------------------------------------------------------------------------------------------------------


 1 CALLS TO NUMERICAL SOLUTION IN TIME STEP 2 STRESS PERIOD 1
 1 TOTAL ITERATIONS
 
    Solving:  Stress period:     1    Time step:     3
 

 SLN_1 OUTER ITERATION SUMMARY
 ----------------------------------------------------------------------------------------------------------
                                OUTER      INNER                    STEP   MAXIMUM CHANGE MODEL-(CELLID) OR
 OUTER ITERATION STEP       ITERATION  ITERATION  MAXIMUM CHANGE SUCCESS             MODEL-PACKAGE-(NUMBER)
 ----------------------------------------------------------------------------------------------------------
 Model                              1          1       0.0000000       *                      1_GWF-(3,1,9)
 ----------------------------------------------------------------------------------------------------------


 1 CALLS TO NUMERICAL SOLUTION IN TIME STEP 3 STRESS PERIOD 1
 1 TOTAL ITERATIONS
 
    Solving:  Stress period:     1    Time step:     4
 

 SLN_1 OUTER ITERATION SUMMARY
 ----------------------------------------------------------------------------------------------------------
                                OUTER      INNER                    STEP   MAXIMUM CHANGE MODEL-(CELLID) OR
 OUTER ITERATION STEP       ITERATION  ITERATION  MAXIMUM CHANGE SUCCESS             MODEL-PACKAGE-(NUMBER)
 ----------------------------------------------------------------------------------------------------------
 Model                              1          1       0.0000000       *                      1_GWF-(3,1,9)
 ----------------------------------------------------------------------------------------------------------


 1 CALLS TO NUMERICAL SOLUTION IN TIME STEP 4 STRESS PERIOD 1
 1 TOTAL ITERATIONS
 
    Solving:  Stress period:     1    Time step:     5
 

 SLN_1 OUTER ITERATION SUMMARY
 ----------------------------------------------------------------------------------------------------------
                                OUTER      INNER                    STEP   MAXIMUM CHANGE MODEL-(CELLID) OR
 OUTER ITERATION STEP       ITERATION  ITERATION  MAXIMUM CHANGE SUCCESS             MODEL-PACKAGE-(NUMBER)
 ----------------------------------------------------------------------------------------------------------
 Model                              1          1       0.0000000       *                      1_GWF-(3,1,9)
 ----------------------------------------------------------------------------------------------------------


 1 CALLS TO NUMERICAL SOLUTION IN TIME STEP 5 STRESS PERIOD 1
 1 TOTAL ITERATIONS
 
    Solving:  Stress period:     1    Time step:     6
 

 SLN_1 OUTER ITERATION SUMMARY
 ----------------------------------------------------------------------------------------------------------
                                OUTER      INNER                    STEP   MAXIMUM CHANGE MODEL-(CELLID) OR
 OUTER ITERATION STEP       ITERATION  ITERATION  MAXIMUM CHANGE SUCCESS             MODEL-PACKAGE-(NUMBER)
 ----------------------------------------------------------------------------------------------------------
 Model                              1          1       0.0000000       *                      1_GWF-(3,1,9)
 ----------------------------------------------------------------------------------------------------------


 1 CALLS TO NUMERICAL SOLUTION IN TIME STEP 6 STRESS PERIOD 1
 1 TOTAL ITERATIONS
 
    Solving:  Stress period:     1    Time step:     7
 

 SLN_1 OUTER ITERATION SUMMARY
 ----------------------------------------------------------------------------------------------------------
                                OUTER      INNER                    STEP   MAXIMUM CHANGE MODEL-(CELLID) OR
 OUTER ITERATION STEP       ITERATION  ITERATION  MAXIMUM CHANGE SUCCESS             MODEL-PACKAGE-(NUMBER)
 ----------------------------------------------------------------------------------------------------------
 Model                              1          1       0.0000000       *                      1_GWF-(3,1,9)
 ----------------------------------------------------------------------------------------------------------


 1 CALLS TO NUMERICAL SOLUTION IN TIME STEP 7 STRESS PERIOD 1
 1 TOTAL ITERATIONS
 
    Solving:  Stress period:     1    Time step:     8
 

 SLN_1 OUTER ITERATION SUMMARY
 ----------------------------------------------------------------------------------------------------------
                                OUTER      INNER                    STEP   MAXIMUM CHANGE MODEL-(CELLID) OR
 OUTER ITERATION STEP       ITERATION  ITERATION  MAXIMUM CHANGE SUCCESS             MODEL-PACKAGE-(NUMBER)
 ----------------------------------------------------------------------------------------------------------
 Model                              1          1       0.0000000       *                      1_GWF-(3,1,9)
 ----------------------------------------------------------------------------------------------------------


 1 CALLS TO NUMERICAL SOLUTION IN TIME STEP 8 STRESS PERIOD 1
 1 TOTAL ITERATIONS
 
    Solving:  Stress period:     1    Time step:     9
 

 SLN_1 OUTER ITERATION SUMMARY
 ----------------------------------------------------------------------------------------------------------
                                OUTER      INNER                    STEP   MAXIMUM CHANGE MODEL-(CELLID) OR
 OUTER ITERATION STEP       ITERATION  ITERATION  MAXIMUM CHANGE SUCCESS             MODEL-PACKAGE-(NUMBER)
 ----------------------------------------------------------------------------------------------------------
 Model                              1          1       0.0000000       *                      1_GWF-(3,1,9)
 ----------------------------------------------------------------------------------------------------------


 1 CALLS TO NUMERICAL SOLUTION IN TIME STEP 9 STRESS PERIOD 1
 1 TOTAL ITERATIONS
 
    Solving:  Stress period:     1    Time step:    10
 

 SLN_1 OUTER ITERATION SUMMARY
 ----------------------------------------------------------------------------------------------------------
                                OUTER      INNER                    STEP   MAXIMUM CHANGE MODEL-(CELLID) OR
 OUTER ITERATION STEP       ITERATION  ITERATION  MAXIMUM CHANGE SUCCESS             MODEL-PACKAGE-(NUMBER)
 ----------------------------------------------------------------------------------------------------------
 Model                              1          1       0.0000000       *                      1_GWF-(3,1,9)
 ----------------------------------------------------------------------------------------------------------


 1 CALLS TO NUMERICAL SOLUTION IN TIME STEP 10 STRESS PERIOD 1
 1 TOTAL ITERATIONS
 
    Solving:  Stress period:     2    Time step:     1
 
1
                            STRESS PERIOD NO. 2, LENGTH =   20.00000    
                            -----------------------------------------------
                            NUMBER OF TIME STEPS = 10
                            MULTIPLIER FOR DELT =     1.000
                            INITIAL TIME STEP SIZE =   2.000000    

 SLN_1 OUTER ITERATION SUMMARY
 ----------------------------------------------------------------------------------------------------------
                                OUTER      INNER                    STEP   MAXIMUM CHANGE MODEL-(CELLID) OR
 OUTER ITERATION STEP       ITERATION  ITERATION  MAXIMUM CHANGE SUCCESS             MODEL-PACKAGE-(NUMBER)
 ----------------------------------------------------------------------------------------------------------
 Model                              1          1       0.0000000       *                      1_GWF-(3,1,9)
 ----------------------------------------------------------------------------------------------------------


 1 CALLS TO NUMERICAL SOLUTION IN TIME STEP 1 STRESS PERIOD 2
 1 TOTAL ITERATIONS
 
    Solving:  Stress period:     2    Time step:     2
 

 SLN_1 OUTER ITERATION SUMMARY
 ----------------------------------------------------------------------------------------------------------
                                OUTER      INNER                    STEP   MAXIMUM CHANGE MODEL-(CELLID) OR
 OUTER ITERATION STEP       ITERATION  ITERATION  MAXIMUM CHANGE SUCCESS             MODEL-PACKAGE-(NUMBER)
 ----------------------------------------------------------------------------------------------------------
 Model                              1          1       0.0000000       *                      1_GWF-(3,1,9)
 ----------------------------------------------------------------------------------------------------------


 1 CALLS TO NUMERICAL SOLUTION IN TIME STEP 2 STRESS PERIOD 2
 1 TOTAL ITERATIONS
 
    Solving:  Stress period:     2    Time step:     3
 

 SLN_1 OUTER ITERATION SUMMARY
 ----------------------------------------------------------------------------------------------------------
                                OUTER      INNER                    STEP   MAXIMUM CHANGE MODEL-(CELLID) OR
 OUTER ITERATION STEP       ITERATION  ITERATION  MAXIMUM CHANGE SUCCESS             MODEL-PACKAGE-(NUMBER)
 ----------------------------------------------------------------------------------------------------------
 Model                              1          1       0.0000000       *                      1_GWF-(3,1,9)
 ----------------------------------------------------------------------------------------------------------


 1 CALLS TO NUMERICAL SOLUTION IN TIME STEP 3 STRESS PERIOD 2
 1 TOTAL ITERATIONS
 
    Solving:  Stress period:     2    Time step:     4
 

 SLN_1 OUTER ITERATION SUMMARY
 ----------------------------------------------------------------------------------------------------------
                                OUTER      INNER                    STEP   MAXIMUM CHANGE MODEL-(CELLID) OR
 OUTER ITERATION STEP       ITERATION  ITERATION  MAXIMUM CHANGE SUCCESS             MODEL-PACKAGE-(NUMBER)
 ----------------------------------------------------------------------------------------------------------
 Model                              1          1       0.0000000       *                      1_GWF-(3,1,9)
 ----------------------------------------------------------------------------------------------------------


 1 CALLS TO NUMERICAL SOLUTION IN TIME STEP 4 STRESS PERIOD 2
 1 TOTAL ITERATIONS
 
    Solving:  Stress period:     2    Time step:     5
 

 SLN_1 OUTER ITERATION SUMMARY
 ----------------------------------------------------------------------------------------------------------
                                OUTER      INNER                    STEP   MAXIMUM CHANGE MODEL-(CELLID) OR
 OUTER ITERATION STEP       ITERATION  ITERATION  MAXIMUM CHANGE SUCCESS             MODEL-PACKAGE-(NUMBER)
 ----------------------------------------------------------------------------------------------------------
 Model                              1          1       0.0000000       *                      1_GWF-(3,1,9)
 ----------------------------------------------------------------------------------------------------------


 1 CALLS TO NUMERICAL SOLUTION IN TIME STEP 5 STRESS PERIOD 2
 1 TOTAL ITERATIONS
 
    Solving:  Stress period:     2    Time step:     6
 

 SLN_1 OUTER ITERATION SUMMARY
 ----------------------------------------------------------------------------------------------------------
                                OUTER      INNER                    STEP   MAXIMUM CHANGE MODEL-(CELLID) OR
 OUTER ITERATION STEP       ITERATION  ITERATION  MAXIMUM CHANGE SUCCESS             MODEL-PACKAGE-(NUMBER)
 ----------------------------------------------------------------------------------------------------------
 Model                              1          1       0.0000000       *                      1_GWF-(3,1,9)
 ----------------------------------------------------------------------------------------------------------


 1 CALLS TO NUMERICAL SOLUTION IN TIME STEP 6 STRESS PERIOD 2
 1 TOTAL ITERATIONS
 
    Solving:  Stress period:     2    Time step:     7
 

 SLN_1 OUTER ITERATION SUMMARY
 ----------------------------------------------------------------------------------------------------------
                                OUTER      INNER                    STEP   MAXIMUM CHANGE MODEL-(CELLID) OR
 OUTER ITERATION STEP       ITERATION  ITERATION  MAXIMUM CHANGE SUCCESS             MODEL-PACKAGE-(NUMBER)
 ----------------------------------------------------------------------------------------------------------
 Model                              1          1       0.0000000       *                      1_GWF-(3,1,9)
 ----------------------------------------------------------------------------------------------------------


 1 CALLS TO NUMERICAL SOLUTION IN TIME STEP 7 STRESS PERIOD 2
 1 TOTAL ITERATIONS
 
    Solving:  Stress period:     2    Time step:     8
 

 SLN_1 OUTER ITERATION SUMMARY
 ----------------------------------------------------------------------------------------------------------
                                OUTER      INNER                    STEP   MAXIMUM CHANGE MODEL-(CELLID) OR
 OUTER ITERATION STEP       ITERATION  ITERATION  MAXIMUM CHANGE SUCCESS             MODEL-PACKAGE-(NUMBER)
 ----------------------------------------------------------------------------------------------------------
 Model                              1          1       0.0000000       *                      1_GWF-(3,1,9)
 ----------------------------------------------------------------------------------------------------------


 1 CALLS TO NUMERICAL SOLUTION IN TIME STEP 8 STRESS PERIOD 2
 1 TOTAL ITERATIONS
 
    Solving:  Stress period:     2    Time step:     9
 

 SLN_1 OUTER ITERATION SUMMARY
 ----------------------------------------------------------------------------------------------------------
                                OUTER      INNER                    STEP   MAXIMUM CHANGE MODEL-(CELLID) OR
 OUTER ITERATION STEP       ITERATION  ITERATION  MAXIMUM CHANGE SUCCESS             MODEL-PACKAGE-(NUMBER)
 ----------------------------------------------------------------------------------------------------------
 Model                              1          1       0.0000000       *                      1_GWF-(3,1,9)
 ----------------------------------------------------------------------------------------------------------


 1 CALLS TO NUMERICAL SOLUTION IN TIME STEP 9 STRESS PERIOD 2
 1 TOTAL ITERATIONS
 
    Solving:  Stress period:     2    Time step:    10
 

 SLN_1 OUTER ITERATION SUMMARY
 ----------------------------------------------------------------------------------------------------------
                                OUTER      INNER                    STEP   MAXIMUM CHANGE MODEL-(CELLID) OR
 OUTER ITERATION STEP       ITERATION  ITERATION  MAXIMUM CHANGE SUCCESS             MODEL-PACKAGE-(NUMBER)
 ----------------------------------------------------------------------------------------------------------
 Model                              1          1       0.0000000       *                      1_GWF-(3,1,9)
 ----------------------------------------------------------------------------------------------------------


 1 CALLS TO NUMERICAL SOLUTION IN TIME STEP 10 STRESS PERIOD 2
 1 TOTAL ITERATIONS
 
    Solving:  Stress period:     3    Time step:     1
 
1
                            STRESS PERIOD NO. 3, LENGTH =   20.00000    
                            -----------------------------------------------
                            NUMBER OF TIME STEPS = 10
                            MULTIPLIER FOR DELT =     1.000
                            INITIAL TIME STEP SIZE =   2.000000    

 SLN_1 OUTER ITERATION SUMMARY
 ----------------------------------------------------------------------------------------------------------
                                OUTER      INNER                    STEP   MAXIMUM CHANGE MODEL-(CELLID) OR
 OUTER ITERATION STEP       ITERATION  ITERATION  MAXIMUM CHANGE SUCCESS             MODEL-PACKAGE-(NUMBER)
 ----------------------------------------------------------------------------------------------------------
 Model                              1          1       0.0000000       *                      1_GWF-(3,1,9)
 ----------------------------------------------------------------------------------------------------------


 1 CALLS TO NUMERICAL SOLUTION IN TIME STEP 1 STRESS PERIOD 3
 1 TOTAL ITERATIONS
 
    Solving:  Stress period:     3    Time step:     2
 

 SLN_1 OUTER ITERATION SUMMARY
 ----------------------------------------------------------------------------------------------------------
                                OUTER      INNER                    STEP   MAXIMUM CHANGE MODEL-(CELLID) OR
 OUTER ITERATION STEP       ITERATION  ITERATION  MAXIMUM CHANGE SUCCESS             MODEL-PACKAGE-(NUMBER)
 ----------------------------------------------------------------------------------------------------------
 Model                              1          1       0.0000000       *                      1_GWF-(3,1,9)
 ----------------------------------------------------------------------------------------------------------


 1 CALLS TO NUMERICAL SOLUTION IN TIME STEP 2 STRESS PERIOD 3
 1 TOTAL ITERATIONS
 
    Solving:  Stress period:     3    Time step:     3
 

 SLN_1 OUTER ITERATION SUMMARY
 ----------------------------------------------------------------------------------------------------------
                                OUTER      INNER                    STEP   MAXIMUM CHANGE MODEL-(CELLID) OR
 OUTER ITERATION STEP       ITERATION  ITERATION  MAXIMUM CHANGE SUCCESS             MODEL-PACKAGE-(NUMBER)
 ----------------------------------------------------------------------------------------------------------
 Model                              1          1       0.0000000       *                      1_GWF-(3,1,9)
 ----------------------------------------------------------------------------------------------------------


 1 CALLS TO NUMERICAL SOLUTION IN TIME STEP 3 STRESS PERIOD 3
 1 TOTAL ITERATIONS
 
    Solving:  Stress period:     3    Time step:     4
 

 SLN_1 OUTER ITERATION SUMMARY
 ----------------------------------------------------------------------------------------------------------
                                OUTER      INNER                    STEP   MAXIMUM CHANGE MODEL-(CELLID) OR
 OUTER ITERATION STEP       ITERATION  ITERATION  MAXIMUM CHANGE SUCCESS             MODEL-PACKAGE-(NUMBER)
 ----------------------------------------------------------------------------------------------------------
 Model                              1          1       0.0000000       *                      1_GWF-(3,1,9)
 ----------------------------------------------------------------------------------------------------------


 1 CALLS TO NUMERICAL SOLUTION IN TIME STEP 4 STRESS PERIOD 3
 1 TOTAL ITERATIONS
 
    Solving:  Stress period:     3    Time step:     5
 

 SLN_1 OUTER ITERATION SUMMARY
 ----------------------------------------------------------------------------------------------------------
                                OUTER      INNER                    STEP   MAXIMUM CHANGE MODEL-(CELLID) OR
 OUTER ITERATION STEP       ITERATION  ITERATION  MAXIMUM CHANGE SUCCESS             MODEL-PACKAGE-(NUMBER)
 ----------------------------------------------------------------------------------------------------------
 Model                              1          1       0.0000000       *                      1_GWF-(3,1,9)
 ----------------------------------------------------------------------------------------------------------


 1 CALLS TO NUMERICAL SOLUTION IN TIME STEP 5 STRESS PERIOD 3
 1 TOTAL ITERATIONS
 
    Solving:  Stress period:     3    Time step:     6
 

 SLN_1 OUTER ITERATION SUMMARY
 ----------------------------------------------------------------------------------------------------------
                                OUTER      INNER                    STEP   MAXIMUM CHANGE MODEL-(CELLID) OR
 OUTER ITERATION STEP       ITERATION  ITERATION  MAXIMUM CHANGE SUCCESS             MODEL-PACKAGE-(NUMBER)
 ----------------------------------------------------------------------------------------------------------
 Model                              1          1       0.0000000       *                      1_GWF-(3,1,9)
 ----------------------------------------------------------------------------------------------------------


 1 CALLS TO NUMERICAL SOLUTION IN TIME STEP 6 STRESS PERIOD 3
 1 TOTAL ITERATIONS
 
    Solving:  Stress period:     3    Time step:     7
 

 SLN_1 OUTER ITERATION SUMMARY
 ----------------------------------------------------------------------------------------------------------
                                OUTER      INNER                    STEP   MAXIMUM CHANGE MODEL-(CELLID) OR
 OUTER ITERATION STEP       ITERATION  ITERATION  MAXIMUM CHANGE SUCCESS             MODEL-PACKAGE-(NUMBER)
 ----------------------------------------------------------------------------------------------------------
 Model                              1          1       0.0000000       *                      1_GWF-(3,1,9)
 ----------------------------------------------------------------------------------------------------------


 1 CALLS TO NUMERICAL SOLUTION IN TIME STEP 7 STRESS PERIOD 3
 1 TOTAL ITERATIONS
 
    Solving:  Stress period:     3    Time step:     8
 

 SLN_1 OUTER ITERATION SUMMARY
 ----------------------------------------------------------------------------------------------------------
                                OUTER      INNER                    STEP   MAXIMUM CHANGE MODEL-(CELLID) OR
 OUTER ITERATION STEP       ITERATION  ITERATION  MAXIMUM CHANGE SUCCESS             MODEL-PACKAGE-(NUMBER)
 ----------------------------------------------------------------------------------------------------------
 Model                              1          1       0.0000000       *                      1_GWF-(3,1,9)
 ----------------------------------------------------------------------------------------------------------


 1 CALLS TO NUMERICAL SOLUTION IN TIME STEP 8 STRESS PERIOD 3
 1 TOTAL ITERATIONS
 
    Solving:  Stress period:     3    Time step:     9
 

 SLN_1 OUTER ITERATION SUMMARY
 ----------------------------------------------------------------------------------------------------------
                                OUTER      INNER                    STEP   MAXIMUM CHANGE MODEL-(CELLID) OR
 OUTER ITERATION STEP       ITERATION  ITERATION  MAXIMUM CHANGE SUCCESS             MODEL-PACKAGE-(NUMBER)
 ----------------------------------------------------------------------------------------------------------
 Model                              1          1       0.0000000       *                      1_GWF-(3,1,9)
 ----------------------------------------------------------------------------------------------------------


 1 CALLS TO NUMERICAL SOLUTION IN TIME STEP 9 STRESS PERIOD 3
 1 TOTAL ITERATIONS
 
    Solving:  Stress period:     3    Time step:    10
 

 SLN_1 OUTER ITERATION SUMMARY
 ----------------------------------------------------------------------------------------------------------
                                OUTER      INNER                    STEP   MAXIMUM CHANGE MODEL-(CELLID) OR
 OUTER ITERATION STEP       ITERATION  ITERATION  MAXIMUM CHANGE SUCCESS             MODEL-PACKAGE-(NUMBER)
 ----------------------------------------------------------------------------------------------------------
 Model                              1          1       0.0000000       *                      1_GWF-(3,1,9)
 ----------------------------------------------------------------------------------------------------------


 1 CALLS TO NUMERICAL SOLUTION IN TIME STEP 10 STRESS PERIOD 3
 1 TOTAL ITERATIONS
 
    Solving:  Stress period:     4    Time step:     1
 
1
                            STRESS PERIOD NO. 4, LENGTH =   500.0000    
                            -----------------------------------------------
                            NUMBER OF TIME STEPS = 10
                            MULTIPLIER FOR DELT =     1.000
                            INITIAL TIME STEP SIZE =   50.00000    

 SLN_1 OUTER ITERATION SUMMARY
 ----------------------------------------------------------------------------------------------------------
                                OUTER      INNER                    STEP   MAXIMUM CHANGE MODEL-(CELLID) OR
 OUTER ITERATION STEP       ITERATION  ITERATION  MAXIMUM CHANGE SUCCESS             MODEL-PACKAGE-(NUMBER)
 ----------------------------------------------------------------------------------------------------------
 Model                              1          1       0.0000000       *                      1_GWF-(3,1,9)
 ----------------------------------------------------------------------------------------------------------


 1 CALLS TO NUMERICAL SOLUTION IN TIME STEP 1 STRESS PERIOD 4
 1 TOTAL ITERATIONS
 
    Solving:  Stress period:     4    Time step:     2
 

 SLN_1 OUTER ITERATION SUMMARY
 ----------------------------------------------------------------------------------------------------------
                                OUTER      INNER                    STEP   MAXIMUM CHANGE MODEL-(CELLID) OR
 OUTER ITERATION STEP       ITERATION  ITERATION  MAXIMUM CHANGE SUCCESS             MODEL-PACKAGE-(NUMBER)
 ----------------------------------------------------------------------------------------------------------
 Model                              1          1       0.0000000       *                      1_GWF-(3,1,9)
 ----------------------------------------------------------------------------------------------------------


 1 CALLS TO NUMERICAL SOLUTION IN TIME STEP 2 STRESS PERIOD 4
 1 TOTAL ITERATIONS
 
    Solving:  Stress period:     4    Time step:     3
 

 SLN_1 OUTER ITERATION SUMMARY
 ----------------------------------------------------------------------------------------------------------
                                OUTER      INNER                    STEP   MAXIMUM CHANGE MODEL-(CELLID) OR
 OUTER ITERATION STEP       ITERATION  ITERATION  MAXIMUM CHANGE SUCCESS             MODEL-PACKAGE-(NUMBER)
 ----------------------------------------------------------------------------------------------------------
 Model                              1          1       0.0000000       *                      1_GWF-(3,1,9)
 ----------------------------------------------------------------------------------------------------------


 1 CALLS TO NUMERICAL SOLUTION IN TIME STEP 3 STRESS PERIOD 4
 1 TOTAL ITERATIONS
 
    Solving:  Stress period:     4    Time step:     4
 

 SLN_1 OUTER ITERATION SUMMARY
 ----------------------------------------------------------------------------------------------------------
                                OUTER      INNER                    STEP   MAXIMUM CHANGE MODEL-(CELLID) OR
 OUTER ITERATION STEP       ITERATION  ITERATION  MAXIMUM CHANGE SUCCESS             MODEL-PACKAGE-(NUMBER)
 ----------------------------------------------------------------------------------------------------------
 Model                              1          1       0.0000000       *                      1_GWF-(3,1,9)
 ----------------------------------------------------------------------------------------------------------


 1 CALLS TO NUMERICAL SOLUTION IN TIME STEP 4 STRESS PERIOD 4
 1 TOTAL ITERATIONS
 
    Solving:  Stress period:     4    Time step:     5
 

 SLN_1 OUTER ITERATION SUMMARY
 ----------------------------------------------------------------------------------------------------------
                                OUTER      INNER                    STEP   MAXIMUM CHANGE MODEL-(CELLID) OR
 OUTER ITERATION STEP       ITERATION  ITERATION  MAXIMUM CHANGE SUCCESS             MODEL-PACKAGE-(NUMBER)
 ----------------------------------------------------------------------------------------------------------
 Model                              1          1       0.0000000       *                      1_GWF-(3,1,9)
 ----------------------------------------------------------------------------------------------------------


 1 CALLS TO NUMERICAL SOLUTION IN TIME STEP 5 STRESS PERIOD 4
 1 TOTAL ITERATIONS
 
    Solving:  Stress period:     4    Time step:     6
 

 SLN_1 OUTER ITERATION SUMMARY
 ----------------------------------------------------------------------------------------------------------
                                OUTER      INNER                    STEP   MAXIMUM CHANGE MODEL-(CELLID) OR
 OUTER ITERATION STEP       ITERATION  ITERATION  MAXIMUM CHANGE SUCCESS             MODEL-PACKAGE-(NUMBER)
 ----------------------------------------------------------------------------------------------------------
 Model                              1          1       0.0000000       *                      1_GWF-(3,1,9)
 ----------------------------------------------------------------------------------------------------------


 1 CALLS TO NUMERICAL SOLUTION IN TIME STEP 6 STRESS PERIOD 4
 1 TOTAL ITERATIONS
 
    Solving:  Stress period:     4    Time step:     7
 

 SLN_1 OUTER ITERATION SUMMARY
 ----------------------------------------------------------------------------------------------------------
                                OUTER      INNER                    STEP   MAXIMUM CHANGE MODEL-(CELLID) OR
 OUTER ITERATION STEP       ITERATION  ITERATION  MAXIMUM CHANGE SUCCESS             MODEL-PACKAGE-(NUMBER)
 ----------------------------------------------------------------------------------------------------------
 Model                              1          1       0.0000000       *                      1_GWF-(3,1,9)
 ----------------------------------------------------------------------------------------------------------


 1 CALLS TO NUMERICAL SOLUTION IN TIME STEP 7 STRESS PERIOD 4
 1 TOTAL ITERATIONS
 
    Solving:  Stress period:     4    Time step:     8
 

 SLN_1 OUTER ITERATION SUMMARY
 ----------------------------------------------------------------------------------------------------------
                                OUTER      INNER                    STEP   MAXIMUM CHANGE MODEL-(CELLID) OR
 OUTER ITERATION STEP       ITERATION  ITERATION  MAXIMUM CHANGE SUCCESS             MODEL-PACKAGE-(NUMBER)
 ----------------------------------------------------------------------------------------------------------
 Model                              1          1       0.0000000       *                      1_GWF-(3,1,9)
 ----------------------------------------------------------------------------------------------------------


 1 CALLS TO NUMERICAL SOLUTION IN TIME STEP 8 STRESS PERIOD 4
 1 TOTAL ITERATIONS
 
    Solving:  Stress period:     4    Time step:     9
 

 SLN_1 OUTER ITERATION SUMMARY
 ----------------------------------------------------------------------------------------------------------
                                OUTER      INNER                    STEP   MAXIMUM CHANGE MODEL-(CELLID) OR
 OUTER ITERATION STEP       ITERATION  ITERATION  MAXIMUM CHANGE SUCCESS             MODEL-PACKAGE-(NUMBER)
 ----------------------------------------------------------------------------------------------------------
 Model                              1          1       0.0000000       *                      1_GWF-(3,1,9)
 ----------------------------------------------------------------------------------------------------------


 1 CALLS TO NUMERICAL SOLUTION IN TIME STEP 9 STRESS PERIOD 4
 1 TOTAL ITERATIONS
 
    Solving:  Stress period:     4    Time step:    10
 

 SLN_1 OUTER ITERATION SUMMARY
 ----------------------------------------------------------------------------------------------------------
                                OUTER      INNER                    STEP   MAXIMUM CHANGE MODEL-(CELLID) OR
 OUTER ITERATION STEP       ITERATION  ITERATION  MAXIMUM CHANGE SUCCESS             MODEL-PACKAGE-(NUMBER)
 ----------------------------------------------------------------------------------------------------------
 Model                              1          1       0.0000000       *                      1_GWF-(3,1,9)
 ----------------------------------------------------------------------------------------------------------


 1 CALLS TO NUMERICAL SOLUTION IN TIME STEP 10 STRESS PERIOD 4
 1 TOTAL ITERATIONS
 
    Solving:  Stress period:     5    Time step:     1
 
1
                            STRESS PERIOD NO. 5, LENGTH =   2000.000    
                            -----------------------------------------------
                            NUMBER OF TIME STEPS = 50
                            MULTIPLIER FOR DELT =     1.000
                            INITIAL TIME STEP SIZE =   40.00000    

 SLN_1 OUTER ITERATION SUMMARY
 ----------------------------------------------------------------------------------------------------------
                                OUTER      INNER                    STEP   MAXIMUM CHANGE MODEL-(CELLID) OR
 OUTER ITERATION STEP       ITERATION  ITERATION  MAXIMUM CHANGE SUCCESS             MODEL-PACKAGE-(NUMBER)
 ----------------------------------------------------------------------------------------------------------
 Model                              1          1       0.0000000       *                      1_GWF-(3,1,9)
 ----------------------------------------------------------------------------------------------------------


 1 CALLS TO NUMERICAL SOLUTION IN TIME STEP 1 STRESS PERIOD 5
 1 TOTAL ITERATIONS
 
    Solving:  Stress period:     5    Time step:     2
 

 SLN_1 OUTER ITERATION SUMMARY
 ----------------------------------------------------------------------------------------------------------
                                OUTER      INNER                    STEP   MAXIMUM CHANGE MODEL-(CELLID) OR
 OUTER ITERATION STEP       ITERATION  ITERATION  MAXIMUM CHANGE SUCCESS             MODEL-PACKAGE-(NUMBER)
 ----------------------------------------------------------------------------------------------------------
 Model                              1          1       0.0000000       *                      1_GWF-(3,1,9)
 ----------------------------------------------------------------------------------------------------------


 1 CALLS TO NUMERICAL SOLUTION IN TIME STEP 2 STRESS PERIOD 5
 1 TOTAL ITERATIONS
 
    Solving:  Stress period:     5    Time step:     3
 

 SLN_1 OUTER ITERATION SUMMARY
 ----------------------------------------------------------------------------------------------------------
                                OUTER      INNER                    STEP   MAXIMUM CHANGE MODEL-(CELLID) OR
 OUTER ITERATION STEP       ITERATION  ITERATION  MAXIMUM CHANGE SUCCESS             MODEL-PACKAGE-(NUMBER)
 ----------------------------------------------------------------------------------------------------------
 Model                              1          1       0.0000000       *                      1_GWF-(3,1,9)
 ----------------------------------------------------------------------------------------------------------


 1 CALLS TO NUMERICAL SOLUTION IN TIME STEP 3 STRESS PERIOD 5
 1 TOTAL ITERATIONS
 
    Solving:  Stress period:     5    Time step:     4
 

 SLN_1 OUTER ITERATION SUMMARY
 ----------------------------------------------------------------------------------------------------------
                                OUTER      INNER                    STEP   MAXIMUM CHANGE MODEL-(CELLID) OR
 OUTER ITERATION STEP       ITERATION  ITERATION  MAXIMUM CHANGE SUCCESS             MODEL-PACKAGE-(NUMBER)
 ----------------------------------------------------------------------------------------------------------
 Model                              1          1       0.0000000       *                      1_GWF-(3,1,9)
 ----------------------------------------------------------------------------------------------------------


 1 CALLS TO NUMERICAL SOLUTION IN TIME STEP 4 STRESS PERIOD 5
 1 TOTAL ITERATIONS
 
    Solving:  Stress period:     5    Time step:     5
 

 SLN_1 OUTER ITERATION SUMMARY
 ----------------------------------------------------------------------------------------------------------
                                OUTER      INNER                    STEP   MAXIMUM CHANGE MODEL-(CELLID) OR
 OUTER ITERATION STEP       ITERATION  ITERATION  MAXIMUM CHANGE SUCCESS             MODEL-PACKAGE-(NUMBER)
 ----------------------------------------------------------------------------------------------------------
 Model                              1          1       0.0000000       *                      1_GWF-(3,1,9)
 ----------------------------------------------------------------------------------------------------------


 1 CALLS TO NUMERICAL SOLUTION IN TIME STEP 5 STRESS PERIOD 5
 1 TOTAL ITERATIONS
 
    Solving:  Stress period:     5    Time step:     6
 

 SLN_1 OUTER ITERATION SUMMARY
 ----------------------------------------------------------------------------------------------------------
                                OUTER      INNER                    STEP   MAXIMUM CHANGE MODEL-(CELLID) OR
 OUTER ITERATION STEP       ITERATION  ITERATION  MAXIMUM CHANGE SUCCESS             MODEL-PACKAGE-(NUMBER)
 ----------------------------------------------------------------------------------------------------------
 Model                              1          1       0.0000000       *                      1_GWF-(3,1,9)
 ----------------------------------------------------------------------------------------------------------


 1 CALLS TO NUMERICAL SOLUTION IN TIME STEP 6 STRESS PERIOD 5
 1 TOTAL ITERATIONS
 
    Solving:  Stress period:     5    Time step:     7
 

 SLN_1 OUTER ITERATION SUMMARY
 ----------------------------------------------------------------------------------------------------------
                                OUTER      INNER                    STEP   MAXIMUM CHANGE MODEL-(CELLID) OR
 OUTER ITERATION STEP       ITERATION  ITERATION  MAXIMUM CHANGE SUCCESS             MODEL-PACKAGE-(NUMBER)
 ----------------------------------------------------------------------------------------------------------
 Model                              1          1       0.0000000       *                      1_GWF-(3,1,9)
 ----------------------------------------------------------------------------------------------------------


 1 CALLS TO NUMERICAL SOLUTION IN TIME STEP 7 STRESS PERIOD 5
 1 TOTAL ITERATIONS
 
    Solving:  Stress period:     5    Time step:     8
 

 SLN_1 OUTER ITERATION SUMMARY
 ----------------------------------------------------------------------------------------------------------
                                OUTER      INNER                    STEP   MAXIMUM CHANGE MODEL-(CELLID) OR
 OUTER ITERATION STEP       ITERATION  ITERATION  MAXIMUM CHANGE SUCCESS             MODEL-PACKAGE-(NUMBER)
 ----------------------------------------------------------------------------------------------------------
 Model                              1          1       0.0000000       *                      1_GWF-(3,1,9)
 ----------------------------------------------------------------------------------------------------------


 1 CALLS TO NUMERICAL SOLUTION IN TIME STEP 8 STRESS PERIOD 5
 1 TOTAL ITERATIONS
 
    Solving:  Stress period:     5    Time step:     9
 

 SLN_1 OUTER ITERATION SUMMARY
 ----------------------------------------------------------------------------------------------------------
                                OUTER      INNER                    STEP   MAXIMUM CHANGE MODEL-(CELLID) OR
 OUTER ITERATION STEP       ITERATION  ITERATION  MAXIMUM CHANGE SUCCESS             MODEL-PACKAGE-(NUMBER)
 ----------------------------------------------------------------------------------------------------------
 Model                              1          1       0.0000000       *                      1_GWF-(3,1,9)
 ----------------------------------------------------------------------------------------------------------


 1 CALLS TO NUMERICAL SOLUTION IN TIME STEP 9 STRESS PERIOD 5
 1 TOTAL ITERATIONS
 
    Solving:  Stress period:     5    Time step:    10
 

 SLN_1 OUTER ITERATION SUMMARY
 ----------------------------------------------------------------------------------------------------------
                                OUTER      INNER                    STEP   MAXIMUM CHANGE MODEL-(CELLID) OR
 OUTER ITERATION STEP       ITERATION  ITERATION  MAXIMUM CHANGE SUCCESS             MODEL-PACKAGE-(NUMBER)
 ----------------------------------------------------------------------------------------------------------
 Model                              1          1       0.0000000       *                      1_GWF-(3,1,9)
 ----------------------------------------------------------------------------------------------------------


 1 CALLS TO NUMERICAL SOLUTION IN TIME STEP 10 STRESS PERIOD 5
 1 TOTAL ITERATIONS
 
    Solving:  Stress period:     5    Time step:    11
 

 SLN_1 OUTER ITERATION SUMMARY
 ----------------------------------------------------------------------------------------------------------
                                OUTER      INNER                    STEP   MAXIMUM CHANGE MODEL-(CELLID) OR
 OUTER ITERATION STEP       ITERATION  ITERATION  MAXIMUM CHANGE SUCCESS             MODEL-PACKAGE-(NUMBER)
 ----------------------------------------------------------------------------------------------------------
 Model                              1          1       0.0000000       *                      1_GWF-(3,1,9)
 ----------------------------------------------------------------------------------------------------------


 1 CALLS TO NUMERICAL SOLUTION IN TIME STEP 11 STRESS PERIOD 5
 1 TOTAL ITERATIONS
 
    Solving:  Stress period:     5    Time step:    12
 

 SLN_1 OUTER ITERATION SUMMARY
 ----------------------------------------------------------------------------------------------------------
                                OUTER      INNER                    STEP   MAXIMUM CHANGE MODEL-(CELLID) OR
 OUTER ITERATION STEP       ITERATION  ITERATION  MAXIMUM CHANGE SUCCESS             MODEL-PACKAGE-(NUMBER)
 ----------------------------------------------------------------------------------------------------------
 Model                              1          1       0.0000000       *                      1_GWF-(3,1,9)
 ----------------------------------------------------------------------------------------------------------


 1 CALLS TO NUMERICAL SOLUTION IN TIME STEP 12 STRESS PERIOD 5
 1 TOTAL ITERATIONS
 
    Solving:  Stress period:     5    Time step:    13
 

 SLN_1 OUTER ITERATION SUMMARY
 ----------------------------------------------------------------------------------------------------------
                                OUTER      INNER                    STEP   MAXIMUM CHANGE MODEL-(CELLID) OR
 OUTER ITERATION STEP       ITERATION  ITERATION  MAXIMUM CHANGE SUCCESS             MODEL-PACKAGE-(NUMBER)
 ----------------------------------------------------------------------------------------------------------
 Model                              1          1       0.0000000       *                      1_GWF-(3,1,9)
 ----------------------------------------------------------------------------------------------------------


 1 CALLS TO NUMERICAL SOLUTION IN TIME STEP 13 STRESS PERIOD 5
 1 TOTAL ITERATIONS
 
    Solving:  Stress period:     5    Time step:    14
 

 SLN_1 OUTER ITERATION SUMMARY
 ----------------------------------------------------------------------------------------------------------
                                OUTER      INNER                    STEP   MAXIMUM CHANGE MODEL-(CELLID) OR
 OUTER ITERATION STEP       ITERATION  ITERATION  MAXIMUM CHANGE SUCCESS             MODEL-PACKAGE-(NUMBER)
 ----------------------------------------------------------------------------------------------------------
 Model                              1          1       0.0000000       *                      1_GWF-(3,1,9)
 ----------------------------------------------------------------------------------------------------------


 1 CALLS TO NUMERICAL SOLUTION IN TIME STEP 14 STRESS PERIOD 5
 1 TOTAL ITERATIONS
 
    Solving:  Stress period:     5    Time step:    15
 

 SLN_1 OUTER ITERATION SUMMARY
 ----------------------------------------------------------------------------------------------------------
                                OUTER      INNER                    STEP   MAXIMUM CHANGE MODEL-(CELLID) OR
 OUTER ITERATION STEP       ITERATION  ITERATION  MAXIMUM CHANGE SUCCESS             MODEL-PACKAGE-(NUMBER)
 ----------------------------------------------------------------------------------------------------------
 Model                              1          1       0.0000000       *                      1_GWF-(3,1,9)
 ----------------------------------------------------------------------------------------------------------


 1 CALLS TO NUMERICAL SOLUTION IN TIME STEP 15 STRESS PERIOD 5
 1 TOTAL ITERATIONS
 
    Solving:  Stress period:     5    Time step:    16
 

 SLN_1 OUTER ITERATION SUMMARY
 ----------------------------------------------------------------------------------------------------------
                                OUTER      INNER                    STEP   MAXIMUM CHANGE MODEL-(CELLID) OR
 OUTER ITERATION STEP       ITERATION  ITERATION  MAXIMUM CHANGE SUCCESS             MODEL-PACKAGE-(NUMBER)
 ----------------------------------------------------------------------------------------------------------
 Model                              1          1       0.0000000       *                      1_GWF-(3,1,9)
 ----------------------------------------------------------------------------------------------------------


 1 CALLS TO NUMERICAL SOLUTION IN TIME STEP 16 STRESS PERIOD 5
 1 TOTAL ITERATIONS
 
    Solving:  Stress period:     5    Time step:    17
 

 SLN_1 OUTER ITERATION SUMMARY
 ----------------------------------------------------------------------------------------------------------
                                OUTER      INNER                    STEP   MAXIMUM CHANGE MODEL-(CELLID) OR
 OUTER ITERATION STEP       ITERATION  ITERATION  MAXIMUM CHANGE SUCCESS             MODEL-PACKAGE-(NUMBER)
 ----------------------------------------------------------------------------------------------------------
 Model                              1          1       0.0000000       *                      1_GWF-(3,1,9)
 ----------------------------------------------------------------------------------------------------------


 1 CALLS TO NUMERICAL SOLUTION IN TIME STEP 17 STRESS PERIOD 5
 1 TOTAL ITERATIONS
 
    Solving:  Stress period:     5    Time step:    18
 

 SLN_1 OUTER ITERATION SUMMARY
 ----------------------------------------------------------------------------------------------------------
                                OUTER      INNER                    STEP   MAXIMUM CHANGE MODEL-(CELLID) OR
 OUTER ITERATION STEP       ITERATION  ITERATION  MAXIMUM CHANGE SUCCESS             MODEL-PACKAGE-(NUMBER)
 ----------------------------------------------------------------------------------------------------------
 Model                              1          1       0.0000000       *                      1_GWF-(3,1,9)
 ----------------------------------------------------------------------------------------------------------


 1 CALLS TO NUMERICAL SOLUTION IN TIME STEP 18 STRESS PERIOD 5
 1 TOTAL ITERATIONS
 
    Solving:  Stress period:     5    Time step:    19
 

 SLN_1 OUTER ITERATION SUMMARY
 ----------------------------------------------------------------------------------------------------------
                                OUTER      INNER                    STEP   MAXIMUM CHANGE MODEL-(CELLID) OR
 OUTER ITERATION STEP       ITERATION  ITERATION  MAXIMUM CHANGE SUCCESS             MODEL-PACKAGE-(NUMBER)
 ----------------------------------------------------------------------------------------------------------
 Model                              1          1       0.0000000       *                      1_GWF-(3,1,9)
 ----------------------------------------------------------------------------------------------------------


 1 CALLS TO NUMERICAL SOLUTION IN TIME STEP 19 STRESS PERIOD 5
 1 TOTAL ITERATIONS
 
    Solving:  Stress period:     5    Time step:    20
 

 SLN_1 OUTER ITERATION SUMMARY
 ----------------------------------------------------------------------------------------------------------
                                OUTER      INNER                    STEP   MAXIMUM CHANGE MODEL-(CELLID) OR
 OUTER ITERATION STEP       ITERATION  ITERATION  MAXIMUM CHANGE SUCCESS             MODEL-PACKAGE-(NUMBER)
 ----------------------------------------------------------------------------------------------------------
 Model                              1          1       0.0000000       *                      1_GWF-(3,1,9)
 ----------------------------------------------------------------------------------------------------------


 1 CALLS TO NUMERICAL SOLUTION IN TIME STEP 20 STRESS PERIOD 5
 1 TOTAL ITERATIONS
 
    Solving:  Stress period:     5    Time step:    21
 

 SLN_1 OUTER ITERATION SUMMARY
 ----------------------------------------------------------------------------------------------------------
                                OUTER      INNER                    STEP   MAXIMUM CHANGE MODEL-(CELLID) OR
 OUTER ITERATION STEP       ITERATION  ITERATION  MAXIMUM CHANGE SUCCESS             MODEL-PACKAGE-(NUMBER)
 ----------------------------------------------------------------------------------------------------------
 Model                              1          1       0.0000000       *                      1_GWF-(3,1,9)
 ----------------------------------------------------------------------------------------------------------


 1 CALLS TO NUMERICAL SOLUTION IN TIME STEP 21 STRESS PERIOD 5
 1 TOTAL ITERATIONS
 
    Solving:  Stress period:     5    Time step:    22
 

 SLN_1 OUTER ITERATION SUMMARY
 ----------------------------------------------------------------------------------------------------------
                                OUTER      INNER                    STEP   MAXIMUM CHANGE MODEL-(CELLID) OR
 OUTER ITERATION STEP       ITERATION  ITERATION  MAXIMUM CHANGE SUCCESS             MODEL-PACKAGE-(NUMBER)
 ----------------------------------------------------------------------------------------------------------
 Model                              1          1       0.0000000       *                      1_GWF-(3,1,9)
 ----------------------------------------------------------------------------------------------------------


 1 CALLS TO NUMERICAL SOLUTION IN TIME STEP 22 STRESS PERIOD 5
 1 TOTAL ITERATIONS
 
    Solving:  Stress period:     5    Time step:    23
 

 SLN_1 OUTER ITERATION SUMMARY
 ----------------------------------------------------------------------------------------------------------
                                OUTER      INNER                    STEP   MAXIMUM CHANGE MODEL-(CELLID) OR
 OUTER ITERATION STEP       ITERATION  ITERATION  MAXIMUM CHANGE SUCCESS             MODEL-PACKAGE-(NUMBER)
 ----------------------------------------------------------------------------------------------------------
 Model                              1          1       0.0000000       *                      1_GWF-(3,1,9)
 ----------------------------------------------------------------------------------------------------------


 1 CALLS TO NUMERICAL SOLUTION IN TIME STEP 23 STRESS PERIOD 5
 1 TOTAL ITERATIONS
 
    Solving:  Stress period:     5    Time step:    24
 

 SLN_1 OUTER ITERATION SUMMARY
 ----------------------------------------------------------------------------------------------------------
                                OUTER      INNER                    STEP   MAXIMUM CHANGE MODEL-(CELLID) OR
 OUTER ITERATION STEP       ITERATION  ITERATION  MAXIMUM CHANGE SUCCESS             MODEL-PACKAGE-(NUMBER)
 ----------------------------------------------------------------------------------------------------------
 Model                              1          2  2.66672762E-02                              1_GWF-(3,1,6)
 Package                            1            -5.49637447E-03                      1_GWF-UZF-1-(17)-rech
 Model                              2          2  4.17467940E-03                              1_GWF-(2,1,6)
 Package                            2            -8.88506527E-04                      1_GWF-UZF-1-(20)-rech
 Model                              3          2  6.40118765E-04                              1_GWF-(3,1,6)
 Package                            3            -1.39092942E-04                      1_GWF-UZF-1-(20)-rech
 Model                              4          2  9.68658827E-05                              1_GWF-(3,1,6)
 Package                            4            -2.13276262E-05                      1_GWF-UZF-1-(20)-rech
 Model                              5          2  1.45414466E-05                              1_GWF-(3,1,6)
 Package                            5            -3.22740006E-06                      1_GWF-UZF-1-(21)-rech
 Model                              6          2  2.17274701E-06                              1_GWF-(2,1,6)
 Package                            6            -4.84495309E-07                      1_GWF-UZF-1-(21)-rech
 Model                              7          2  3.23772593E-07       *                      1_GWF-(2,1,5)
 Package                            7            -7.23920913E-08       *              1_GWF-UZF-1-(21)-rech
 ----------------------------------------------------------------------------------------------------------


 7 CALLS TO NUMERICAL SOLUTION IN TIME STEP 24 STRESS PERIOD 5
 14 TOTAL ITERATIONS
 
    Solving:  Stress period:     5    Time step:    25
 

 SLN_1 OUTER ITERATION SUMMARY
 ----------------------------------------------------------------------------------------------------------
                                OUTER      INNER                    STEP   MAXIMUM CHANGE MODEL-(CELLID) OR
 OUTER ITERATION STEP       ITERATION  ITERATION  MAXIMUM CHANGE SUCCESS             MODEL-PACKAGE-(NUMBER)
 ----------------------------------------------------------------------------------------------------------
 Model                              1          2  2.75530415E-02                              1_GWF-(2,1,6)
 Package                            1             4.63891379E-04                      1_GWF-UZF-1-(21)-rech
 Model                              2          2  4.21529184E-03                              1_GWF-(2,1,6)
 Package                            2            -9.17945293E-04                      1_GWF-UZF-1-(21)-rech
 Model                              3          2  6.37242969E-04                              1_GWF-(3,1,5)
 Package                            3            -1.40434852E-04                      1_GWF-UZF-1-(21)-rech
 Model                              4          2  9.55860543E-05                              1_GWF-(2,1,6)
 Package                            4            -2.12301130E-05                      1_GWF-UZF-1-(20)-rech
 Model                              5          2  1.42703586E-05                              1_GWF-(2,1,5)
 Package                            5            -3.18450392E-06                      1_GWF-UZF-1-(21)-rech
 Model                              6          2  2.12463437E-06                              1_GWF-(3,1,6)
 Package                            6            -4.75425135E-07                      1_GWF-UZF-1-(20)-rech
 Model                              7          2  3.15831727E-07       *                      1_GWF-(2,1,6)
 Package                            7            -7.07834060E-08       *              1_GWF-UZF-1-(21)-rech
 ----------------------------------------------------------------------------------------------------------


 7 CALLS TO NUMERICAL SOLUTION IN TIME STEP 25 STRESS PERIOD 5
 14 TOTAL ITERATIONS
 
    Solving:  Stress period:     5    Time step:    26
 

 SLN_1 OUTER ITERATION SUMMARY
 ----------------------------------------------------------------------------------------------------------
                                OUTER      INNER                    STEP   MAXIMUM CHANGE MODEL-(CELLID) OR
 OUTER ITERATION STEP       ITERATION  ITERATION  MAXIMUM CHANGE SUCCESS             MODEL-PACKAGE-(NUMBER)
 ----------------------------------------------------------------------------------------------------------
 Model                              1          2  2.48851988E-02                              1_GWF-(3,1,5)
 Package                            1             1.08551101E-03                      1_GWF-UZF-1-(21)-rech
 Model                              2          2  3.74595913E-03                              1_GWF-(3,1,5)
 Package                            2            -8.28979770E-04                      1_GWF-UZF-1-(20)-rech
 Model                              3          2  5.60781398E-04                              1_GWF-(2,1,5)
 Package                            3            -1.24785997E-04                      1_GWF-UZF-1-(20)-rech
 Model                              4          2  8.36085313E-05                              1_GWF-(3,1,6)
 Package                            4            -1.86808407E-05                      1_GWF-UZF-1-(20)-rech
 Model                              5          2  1.24342027E-05                              1_GWF-(2,1,6)
 Package                            5            -2.78518093E-06                      1_GWF-UZF-1-(21)-rech
 Model                              6          2  1.84651955E-06                              1_GWF-(3,1,5)
 Package                            6            -4.14210174E-07                      1_GWF-UZF-1-(21)-rech
 Model                              7          2  2.73988469E-07       *                      1_GWF-(2,1,5)
 Package                            7            -6.15115582E-08       *              1_GWF-UZF-1-(20)-rech
 ----------------------------------------------------------------------------------------------------------


 7 CALLS TO NUMERICAL SOLUTION IN TIME STEP 26 STRESS PERIOD 5
 14 TOTAL ITERATIONS
 
    Solving:  Stress period:     5    Time step:    27
 

 SLN_1 OUTER ITERATION SUMMARY
 ----------------------------------------------------------------------------------------------------------
                                OUTER      INNER                    STEP   MAXIMUM CHANGE MODEL-(CELLID) OR
 OUTER ITERATION STEP       ITERATION  ITERATION  MAXIMUM CHANGE SUCCESS             MODEL-PACKAGE-(NUMBER)
 ----------------------------------------------------------------------------------------------------------
 Model                              1          2  2.20685937E-02                              1_GWF-(3,1,6)
 Package                            1             9.81078950E-04                      1_GWF-UZF-1-(20)-rech
 Model                              2          2  3.28997758E-03                              1_GWF-(2,1,6)
 Package                            2            -7.34770845E-04                      1_GWF-UZF-1-(21)-rech
 Model                              3          2  4.89549115E-04                              1_GWF-(3,1,5)
 Package                            3            -1.09539359E-04                      1_GWF-UZF-1-(21)-rech
 Model                              4          2  7.26983571E-05                              1_GWF-(3,1,6)
 Package                            4            -1.62994716E-05                      1_GWF-UZF-1-(20)-rech
 Model                              5          2  1.07817098E-05                              1_GWF-(2,1,6)
 Package                            5            -2.42048197E-06                      1_GWF-UZF-1-(21)-rech
 Model                              6          2  1.59779313E-06                              1_GWF-(3,1,5)
 Package                            6            -3.58975569E-07                      1_GWF-UZF-1-(21)-rech
 Model                              7          2  2.36682048E-07       *                      1_GWF-(2,1,5)
 Package                            7            -5.31983061E-08       *              1_GWF-UZF-1-(20)-rech
 ----------------------------------------------------------------------------------------------------------


 7 CALLS TO NUMERICAL SOLUTION IN TIME STEP 27 STRESS PERIOD 5
 14 TOTAL ITERATIONS
 
    Solving:  Stress period:     5    Time step:    28
 

 SLN_1 OUTER ITERATION SUMMARY
 ----------------------------------------------------------------------------------------------------------
                                OUTER      INNER                    STEP   MAXIMUM CHANGE MODEL-(CELLID) OR
 OUTER ITERATION STEP       ITERATION  ITERATION  MAXIMUM CHANGE SUCCESS             MODEL-PACKAGE-(NUMBER)
 ----------------------------------------------------------------------------------------------------------
 Model                              1          2  1.91031465E-02                              1_GWF-(3,1,5)
 Package                            1             9.26932203E-04                      1_GWF-UZF-1-(21)-rech
 Model                              2          2  2.79351897E-03                              1_GWF-(3,1,6)
 Package                            2            -6.27172896E-04                      1_GWF-UZF-1-(20)-rech
 Model                              3          2  4.08561284E-04                              1_GWF-(2,1,5)
 Package                            3            -9.17136547E-05                      1_GWF-UZF-1-(21)-rech
 Model                              4          2  5.97041829E-05                              1_GWF-(3,1,6)
 Package                            4            -1.34134219E-05                      1_GWF-UZF-1-(20)-rech
 Model                              5          2  8.71947337E-06                              1_GWF-(2,1,5)
 Package                            5            -1.96014019E-06                      1_GWF-UZF-1-(21)-rech
 Model                              6          2  1.27297456E-06                              1_GWF-(2,1,6)
 Package                            6            -2.86267886E-07                      1_GWF-UZF-1-(20)-rech
 Model                              7          2  1.85806012E-07       *                      1_GWF-(2,1,5)
 Package                            7            -4.17928605E-08       *              1_GWF-UZF-1-(21)-rech
 ----------------------------------------------------------------------------------------------------------


 7 CALLS TO NUMERICAL SOLUTION IN TIME STEP 28 STRESS PERIOD 5
 14 TOTAL ITERATIONS
 
    Solving:  Stress period:     5    Time step:    29
 

 SLN_1 OUTER ITERATION SUMMARY
 ----------------------------------------------------------------------------------------------------------
                                OUTER      INNER                    STEP   MAXIMUM CHANGE MODEL-(CELLID) OR
 OUTER ITERATION STEP       ITERATION  ITERATION  MAXIMUM CHANGE SUCCESS             MODEL-PACKAGE-(NUMBER)
 ----------------------------------------------------------------------------------------------------------
 Model                              1          2  1.53383052E-02                              1_GWF-(3,1,5)
 Package                            1             1.01278726E-03                      1_GWF-UZF-1-(21)-rech
 Model                              2          2  2.21997050E-03                              1_GWF-(3,1,5)
 Package                            2            -5.02033028E-04                      1_GWF-UZF-1-(20)-rech
 Model                              3          2  3.22193712E-04                              1_GWF-(2,1,6)
 Package                            3            -7.26581158E-05                      1_GWF-UZF-1-(20)-rech
 Model                              4          2  4.68096937E-05                              1_GWF-(2,1,5)
 Package                            4            -1.05451798E-05                      1_GWF-UZF-1-(21)-rech
 Model                              5          2  6.80450624E-06                              1_GWF-(3,1,6)
 Package                            5            -1.53204925E-06                      1_GWF-UZF-1-(20)-rech
 Model                              6          2  9.89462031E-07       *                      1_GWF-(3,1,5)
 Package                            6            -2.22706834E-07       *              1_GWF-UZF-1-(21)-rech
 ----------------------------------------------------------------------------------------------------------


 6 CALLS TO NUMERICAL SOLUTION IN TIME STEP 29 STRESS PERIOD 5
 12 TOTAL ITERATIONS
 
    Solving:  Stress period:     5    Time step:    30
 

 SLN_1 OUTER ITERATION SUMMARY
 ----------------------------------------------------------------------------------------------------------
                                OUTER      INNER                    STEP   MAXIMUM CHANGE MODEL-(CELLID) OR
 OUTER ITERATION STEP       ITERATION  ITERATION  MAXIMUM CHANGE SUCCESS             MODEL-PACKAGE-(NUMBER)
 ----------------------------------------------------------------------------------------------------------
 Model                              1          2  1.15741067E-02                              1_GWF-(3,1,6)
 Package                            1             9.47060951E-04                      1_GWF-UZF-1-(20)-rech
 Model                              2          2  1.63818638E-03                              1_GWF-(2,1,5)
 Package                            2            -3.72935735E-04                      1_GWF-UZF-1-(21)-rech
 Model                              3          2  2.33038823E-04                              1_GWF-(2,1,6)
 Package                            3            -5.27849151E-05                      1_GWF-UZF-1-(20)-rech
 Model                              4          2  3.32333881E-05                              1_GWF-(3,1,6)
 Package                            4            -7.50887365E-06                      1_GWF-UZF-1-(21)-rech
 Model                              5          2  4.74614672E-06                              1_GWF-(2,1,5)
 Package                            5            -1.07083150E-06                      1_GWF-UZF-1-(21)-rech
 Model                              6          2  6.78371784E-07       *                      1_GWF-(2,1,6)
 Package                            6            -1.52928235E-07       *              1_GWF-UZF-1-(20)-rech
 ----------------------------------------------------------------------------------------------------------


 6 CALLS TO NUMERICAL SOLUTION IN TIME STEP 30 STRESS PERIOD 5
 12 TOTAL ITERATIONS
 
    Solving:  Stress period:     5    Time step:    31
 

 SLN_1 OUTER ITERATION SUMMARY
 ----------------------------------------------------------------------------------------------------------
                                OUTER      INNER                    STEP   MAXIMUM CHANGE MODEL-(CELLID) OR
 OUTER ITERATION STEP       ITERATION  ITERATION  MAXIMUM CHANGE SUCCESS             MODEL-PACKAGE-(NUMBER)
 ----------------------------------------------------------------------------------------------------------
 Model                              1          2  9.36274562E-03                              1_GWF-(2,1,5)
 Package                            1             5.54887686E-04                      1_GWF-UZF-1-(21)-rech
 Model                              2          2  1.31676039E-03                              1_GWF-(3,1,6)
 Package                            2            -3.00178224E-04                      1_GWF-UZF-1-(20)-rech
 Model                              3          2  1.86192525E-04                              1_GWF-(2,1,6)
 Package                            3            -4.22165474E-05                      1_GWF-UZF-1-(21)-rech
 Model                              4          2  2.64020152E-05                              1_GWF-(3,1,6)
 Package                            4            -5.96950335E-06                      1_GWF-UZF-1-(21)-rech
 Model                              5          2  3.74985679E-06                              1_GWF-(3,1,5)
 Package                            5            -8.46472854E-07                      1_GWF-UZF-1-(21)-rech
 Model                              6          2  5.33087750E-07       *                      1_GWF-(3,1,6)
 Package                            6            -1.20223853E-07       *              1_GWF-UZF-1-(20)-rech
 ----------------------------------------------------------------------------------------------------------


 6 CALLS TO NUMERICAL SOLUTION IN TIME STEP 31 STRESS PERIOD 5
 12 TOTAL ITERATIONS
 
    Solving:  Stress period:     5    Time step:    32
 

 SLN_1 OUTER ITERATION SUMMARY
 ----------------------------------------------------------------------------------------------------------
                                OUTER      INNER                    STEP   MAXIMUM CHANGE MODEL-(CELLID) OR
 OUTER ITERATION STEP       ITERATION  ITERATION  MAXIMUM CHANGE SUCCESS             MODEL-PACKAGE-(NUMBER)
 ----------------------------------------------------------------------------------------------------------
 Model                              1          2  7.12938404E-03                              1_GWF-(3,1,5)
 Package                            1             5.46057579E-04                      1_GWF-UZF-1-(21)-rech
 Model                              2          2  9.75779569E-04                              1_GWF-(2,1,5)
 Package                            2            -2.22139509E-04                      1_GWF-UZF-1-(20)-rech
 Model                              3          2  1.34381168E-04                              1_GWF-(3,1,5)
 Package                            3            -3.04036356E-05                      1_GWF-UZF-1-(20)-rech
 Model                              4          2  1.85669302E-05                              1_GWF-(2,1,6)
 Package                            4            -4.18708918E-06                      1_GWF-UZF-1-(20)-rech
 Model                              5          2  2.57008998E-06                              1_GWF-(3,1,6)
 Package                            5            -5.78514040E-07                      1_GWF-UZF-1-(21)-rech
 Model                              6          2  3.56137793E-07       *                      1_GWF-(2,1,6)
 Package                            6            -8.00796426E-08       *              1_GWF-UZF-1-(21)-rech
 ----------------------------------------------------------------------------------------------------------


 6 CALLS TO NUMERICAL SOLUTION IN TIME STEP 32 STRESS PERIOD 5
 12 TOTAL ITERATIONS
 
    Solving:  Stress period:     5    Time step:    33
 

 SLN_1 OUTER ITERATION SUMMARY
 ----------------------------------------------------------------------------------------------------------
                                OUTER      INNER                    STEP   MAXIMUM CHANGE MODEL-(CELLID) OR
 OUTER ITERATION STEP       ITERATION  ITERATION  MAXIMUM CHANGE SUCCESS             MODEL-PACKAGE-(NUMBER)
 ----------------------------------------------------------------------------------------------------------
 Model                              1          2  4.13965142E-03                              1_GWF-(3,1,5)
 Package                            1             6.61779555E-04                      1_GWF-UZF-1-(21)-rech
 Model                              2          2  5.48541596E-04                              1_GWF-(2,1,5)
 Package                            2            -1.28984514E-04                      1_GWF-UZF-1-(20)-rech
 Model                              3          2  7.38714521E-05                              1_GWF-(2,1,5)
 Package                            3            -1.70916254E-05                      1_GWF-UZF-1-(20)-rech
 Model                              4          2  1.00547139E-05                              1_GWF-(3,1,5)
 Package                            4            -2.30170910E-06                      1_GWF-UZF-1-(20)-rech
 Model                              5          2  1.37768706E-06                              1_GWF-(2,1,6)
 Package                            5            -3.13287825E-07                      1_GWF-UZF-1-(20)-rech
 Model                              6          2  1.89518175E-07       *                      1_GWF-(2,1,5)
 Package                            6            -4.29263909E-08       *              1_GWF-UZF-1-(21)-rech
 ----------------------------------------------------------------------------------------------------------


 6 CALLS TO NUMERICAL SOLUTION IN TIME STEP 33 STRESS PERIOD 5
 12 TOTAL ITERATIONS
 
    Solving:  Stress period:     5    Time step:    34
 

 SLN_1 OUTER ITERATION SUMMARY
[...]
 Package                            1             2.22345015E-04                      1_GWF-UZF-1-(20)-rech
 Model                              2          2 -2.49588851E-04                              1_GWF-(2,1,5)
 Package                            2             5.50552654E-05                      1_GWF-UZF-1-(20)-rech
 Model                              3          2 -3.25095916E-05                              1_GWF-(3,1,6)
 Package                            3             7.22963231E-06                      1_GWF-UZF-1-(20)-rech
 Model                              4          2 -4.21369281E-06                              1_GWF-(3,1,6)
 Package                            4             9.41678254E-07                      1_GWF-UZF-1-(21)-rech
 Model                              5          2 -5.44576988E-07       *                      1_GWF-(3,1,6)
 Package                            5             1.22054529E-07       *              1_GWF-UZF-1-(21)-rech
 ----------------------------------------------------------------------------------------------------------


 5 CALLS TO NUMERICAL SOLUTION IN TIME STEP 40 STRESS PERIOD 5
 10 TOTAL ITERATIONS
 
    Solving:  Stress period:     5    Time step:    41
 

 SLN_1 OUTER ITERATION SUMMARY
 ----------------------------------------------------------------------------------------------------------
                                OUTER      INNER                    STEP   MAXIMUM CHANGE MODEL-(CELLID) OR
 OUTER ITERATION STEP       ITERATION  ITERATION  MAXIMUM CHANGE SUCCESS             MODEL-PACKAGE-(NUMBER)
 ----------------------------------------------------------------------------------------------------------
 Model                              1          2 -2.95812607E-03                              1_GWF-(2,1,6)
 Package                            1             3.13247526E-04                      1_GWF-UZF-1-(17)-rech
 Model                              2          2 -3.96635251E-04                              1_GWF-(2,1,5)
 Package                            2             8.56855732E-05                      1_GWF-UZF-1-(21)-rech
 Model                              3          2 -5.22803247E-05                              1_GWF-(3,1,5)
 Package                            3             1.14890029E-05                      1_GWF-UZF-1-(20)-rech
 Model                              4          2 -6.81878820E-06                              1_GWF-(2,1,5)
 Package                            4             1.51436061E-06                      1_GWF-UZF-1-(20)-rech
 Model                              5          2 -8.83847232E-07       *                      1_GWF-(3,1,5)
 Package                            5             1.97514156E-07       *              1_GWF-UZF-1-(20)-rech
 ----------------------------------------------------------------------------------------------------------


 5 CALLS TO NUMERICAL SOLUTION IN TIME STEP 41 STRESS PERIOD 5
 10 TOTAL ITERATIONS
 
    Solving:  Stress period:     5    Time step:    42
 

 SLN_1 OUTER ITERATION SUMMARY
 ----------------------------------------------------------------------------------------------------------
                                OUTER      INNER                    STEP   MAXIMUM CHANGE MODEL-(CELLID) OR
 OUTER ITERATION STEP       ITERATION  ITERATION  MAXIMUM CHANGE SUCCESS             MODEL-PACKAGE-(NUMBER)
 ----------------------------------------------------------------------------------------------------------
 Model                              1          2 -3.43003582E-03                              1_GWF-(2,1,6)
 Package                            1             6.50565636E-05                      1_GWF-UZF-1-(17)-rech
 Model                              2          2 -4.45641284E-04                              1_GWF-(2,1,5)
 Package                            2             9.78431449E-05                      1_GWF-UZF-1-(21)-rech
 Model                              3          2 -5.72806973E-05                              1_GWF-(3,1,6)
 Package                            3             1.27120960E-05                      1_GWF-UZF-1-(20)-rech
 Model                              4          2 -7.31557677E-06                              1_GWF-(3,1,5)
 Package                            4             1.63395482E-06                      1_GWF-UZF-1-(21)-rech
 Model                              5          2 -9.30828051E-07       *                      1_GWF-(2,1,6)
 Package                            5             2.08679756E-07       *              1_GWF-UZF-1-(20)-rech
 ----------------------------------------------------------------------------------------------------------


 5 CALLS TO NUMERICAL SOLUTION IN TIME STEP 42 STRESS PERIOD 5
 10 TOTAL ITERATIONS
 
    Solving:  Stress period:     5    Time step:    43
 

 SLN_1 OUTER ITERATION SUMMARY
 ----------------------------------------------------------------------------------------------------------
                                OUTER      INNER                    STEP   MAXIMUM CHANGE MODEL-(CELLID) OR
 OUTER ITERATION STEP       ITERATION  ITERATION  MAXIMUM CHANGE SUCCESS             MODEL-PACKAGE-(NUMBER)
 ----------------------------------------------------------------------------------------------------------
 Model                              1          2 -3.34507845E-03                              1_GWF-(2,1,5)
 Package                            1            -6.22595961E-05                      1_GWF-UZF-1-(21)-rech
 Model                              2          2 -4.33496147E-04                              1_GWF-(2,1,6)
 Package                            2             9.54108062E-05                      1_GWF-UZF-1-(20)-rech
 Model                              3          2 -5.56380055E-05                              1_GWF-(3,1,6)
 Package                            3             1.23644983E-05                      1_GWF-UZF-1-(21)-rech
 Model                              4          2 -7.09993217E-06                              1_GWF-(3,1,5)
 Package                            4             1.58694842E-06                      1_GWF-UZF-1-(21)-rech
 Model                              5          2 -9.02977778E-07       *                      1_GWF-(3,1,6)
 Package                            5             2.02509527E-07       *              1_GWF-UZF-1-(20)-rech
 ----------------------------------------------------------------------------------------------------------


 5 CALLS TO NUMERICAL SOLUTION IN TIME STEP 43 STRESS PERIOD 5
 10 TOTAL ITERATIONS
 
    Solving:  Stress period:     5    Time step:    44
 

 SLN_1 OUTER ITERATION SUMMARY
 ----------------------------------------------------------------------------------------------------------
                                OUTER      INNER                    STEP   MAXIMUM CHANGE MODEL-(CELLID) OR
 OUTER ITERATION STEP       ITERATION  ITERATION  MAXIMUM CHANGE SUCCESS             MODEL-PACKAGE-(NUMBER)
 ----------------------------------------------------------------------------------------------------------
 Model                              1          2 -2.99534923E-03                              1_GWF-(3,1,5)
 Package                            1            -1.08385382E-04                      1_GWF-UZF-1-(21)-rech
 Model                              2          2 -3.84297472E-04                              1_GWF-(2,1,6)
 Package                            2             8.54276047E-05                      1_GWF-UZF-1-(20)-rech
 Model                              3          2 -4.90216710E-05                              1_GWF-(2,1,6)
 Package                            3             1.09601953E-05                      1_GWF-UZF-1-(21)-rech
 Model                              4          2 -6.23315533E-06                              1_GWF-(3,1,5)
 Package                            4             1.39810206E-06                      1_GWF-UZF-1-(21)-rech
 Model                              5          2 -7.91106068E-07       *                      1_GWF-(2,1,6)
 Package                            5             1.77770099E-07       *              1_GWF-UZF-1-(20)-rech
 ----------------------------------------------------------------------------------------------------------


 5 CALLS TO NUMERICAL SOLUTION IN TIME STEP 44 STRESS PERIOD 5
 10 TOTAL ITERATIONS
 
    Solving:  Stress period:     5    Time step:    45
 

 SLN_1 OUTER ITERATION SUMMARY
 ----------------------------------------------------------------------------------------------------------
                                OUTER      INNER                    STEP   MAXIMUM CHANGE MODEL-(CELLID) OR
 OUTER ITERATION STEP       ITERATION  ITERATION  MAXIMUM CHANGE SUCCESS             MODEL-PACKAGE-(NUMBER)
 ----------------------------------------------------------------------------------------------------------
 Model                              1          2 -2.65362810E-03                              1_GWF-(3,1,6)
 Package                            1            -9.68852253E-05                      1_GWF-UZF-1-(21)-rech
 Model                              2          2 -3.38501255E-04                              1_GWF-(2,1,5)
 Package                            2             7.56758789E-05                      1_GWF-UZF-1-(21)-rech
 Model                              3          2 -4.30346620E-05                              1_GWF-(3,1,6)
 Package                            3             9.65334216E-06                      1_GWF-UZF-1-(20)-rech
 Model                              4          2 -5.46137566E-06                              1_GWF-(2,1,6)
 Package                            4             1.22725783E-06                      1_GWF-UZF-1-(21)-rech
 Model                              5          2 -6.92398906E-07       *                      1_GWF-(3,1,6)
 Package                            5             1.55746920E-07       *              1_GWF-UZF-1-(21)-rech
 ----------------------------------------------------------------------------------------------------------


 5 CALLS TO NUMERICAL SOLUTION IN TIME STEP 45 STRESS PERIOD 5
 10 TOTAL ITERATIONS
 
    Solving:  Stress period:     5    Time step:    46
 

 SLN_1 OUTER ITERATION SUMMARY
 ----------------------------------------------------------------------------------------------------------
                                OUTER      INNER                    STEP   MAXIMUM CHANGE MODEL-(CELLID) OR
 OUTER ITERATION STEP       ITERATION  ITERATION  MAXIMUM CHANGE SUCCESS             MODEL-PACKAGE-(NUMBER)
 ----------------------------------------------------------------------------------------------------------
 Model                              1          2 -2.53471559E-03                              1_GWF-(2,1,5)
 Package                            1            -3.99164333E-05                      1_GWF-UZF-1-(21)-rech
 Model                              2          2 -3.17194556E-04                              1_GWF-(2,1,6)
 Package                            2             7.12182281E-05                      1_GWF-UZF-1-(20)-rech
 Model                              3          2 -3.96500238E-05                              1_GWF-(3,1,5)
 Package                            3             8.91225601E-06                      1_GWF-UZF-1-(21)-rech
 Model                              4          2 -4.95417945E-06                              1_GWF-(2,1,6)
 Package                            4             1.11405179E-06                      1_GWF-UZF-1-(20)-rech
 Model                              5          2 -6.18881124E-07       *                      1_GWF-(2,1,5)
 Package                            5             1.39198213E-07       *              1_GWF-UZF-1-(21)-rech
 ----------------------------------------------------------------------------------------------------------


 5 CALLS TO NUMERICAL SOLUTION IN TIME STEP 46 STRESS PERIOD 5
 10 TOTAL ITERATIONS
 
    Solving:  Stress period:     5    Time step:    47
 

 SLN_1 OUTER ITERATION SUMMARY
 ----------------------------------------------------------------------------------------------------------
                                OUTER      INNER                    STEP   MAXIMUM CHANGE MODEL-(CELLID) OR
 OUTER ITERATION STEP       ITERATION  ITERATION  MAXIMUM CHANGE SUCCESS             MODEL-PACKAGE-(NUMBER)
 ----------------------------------------------------------------------------------------------------------
 Model                              1          2 -3.10739345E-03                              1_GWF-(2,1,6)
 Package                            1             1.64615585E-04                      1_GWF-UZF-1-(17)-rech
 Model                              2          2 -3.93924180E-04                              1_GWF-(2,1,6)
 Package                            2             8.70116775E-05                      1_GWF-UZF-1-(21)-rech
 Model                              3          2 -4.95506477E-05                              1_GWF-(3,1,6)
 Package                            3             1.10304679E-05                      1_GWF-UZF-1-(21)-rech
 Model                              4          2 -6.20298728E-06                              1_GWF-(2,1,6)
 Package                            4             1.38749246E-06                      1_GWF-UZF-1-(21)-rech
 Model                              5          2 -7.74299462E-07       *                      1_GWF-(2,1,5)
 Package                            5             1.73692948E-07       *              1_GWF-UZF-1-(21)-rech
 ----------------------------------------------------------------------------------------------------------


 5 CALLS TO NUMERICAL SOLUTION IN TIME STEP 47 STRESS PERIOD 5
 10 TOTAL ITERATIONS
 
    Solving:  Stress period:     5    Time step:    48
 

 SLN_1 OUTER ITERATION SUMMARY
 ----------------------------------------------------------------------------------------------------------
                                OUTER      INNER                    STEP   MAXIMUM CHANGE MODEL-(CELLID) OR
 OUTER ITERATION STEP       ITERATION  ITERATION  MAXIMUM CHANGE SUCCESS             MODEL-PACKAGE-(NUMBER)
 ----------------------------------------------------------------------------------------------------------
 Model                              1          2 -3.37760446E-03                              1_GWF-(3,1,6)
 Package                            1             4.69879882E-05                      1_GWF-UZF-1-(24)-rech
 Model                              2          2 -4.15163078E-04                              1_GWF-(2,1,5)
 Package                            2             9.20566974E-05                      1_GWF-UZF-1-(21)-rech
 Model                              3          2 -5.08087530E-05                              1_GWF-(2,1,6)
 Package                            3             1.13152805E-05                      1_GWF-UZF-1-(20)-rech
 Model                              4          2 -6.20027683E-06                              1_GWF-(2,1,6)
 Package                            4             1.38479388E-06                      1_GWF-UZF-1-(21)-rech
 Model                              5          2 -7.55285818E-07       *                      1_GWF-(2,1,5)
 Package                            5             1.68988706E-07       *              1_GWF-UZF-1-(21)-rech
 ----------------------------------------------------------------------------------------------------------


 5 CALLS TO NUMERICAL SOLUTION IN TIME STEP 48 STRESS PERIOD 5
 10 TOTAL ITERATIONS
 
    Solving:  Stress period:     5    Time step:    49
 

 SLN_1 OUTER ITERATION SUMMARY
 ----------------------------------------------------------------------------------------------------------
                                OUTER      INNER                    STEP   MAXIMUM CHANGE MODEL-(CELLID) OR
 OUTER ITERATION STEP       ITERATION  ITERATION  MAXIMUM CHANGE SUCCESS             MODEL-PACKAGE-(NUMBER)
 ----------------------------------------------------------------------------------------------------------
 Model                              1          2 -4.37554419E-03                              1_GWF-(3,1,6)
 Package                            1             2.46927637E-04                      1_GWF-UZF-1-(17)-rech
 Model                              2          2 -5.34479689E-04                              1_GWF-(3,1,6)
 Package                            2             1.17482477E-04                      1_GWF-UZF-1-(21)-rech
 Model                              3          2 -6.46515343E-05                              1_GWF-(3,1,5)
 Package                            3             1.43506716E-05                      1_GWF-UZF-1-(21)-rech
 Model                              4          2 -7.77399099E-06                              1_GWF-(3,1,6)
 Package                            4             1.73588062E-06                      1_GWF-UZF-1-(20)-rech
 Model                              5          2 -9.31497656E-07       *                      1_GWF-(2,1,5)
 Package                            5             2.08730086E-07       *              1_GWF-UZF-1-(21)-rech
 ----------------------------------------------------------------------------------------------------------


 5 CALLS TO NUMERICAL SOLUTION IN TIME STEP 49 STRESS PERIOD 5
 10 TOTAL ITERATIONS
 
    Solving:  Stress period:     5    Time step:    50
 

 SLN_1 OUTER ITERATION SUMMARY
 ----------------------------------------------------------------------------------------------------------
                                OUTER      INNER                    STEP   MAXIMUM CHANGE MODEL-(CELLID) OR
 OUTER ITERATION STEP       ITERATION  ITERATION  MAXIMUM CHANGE SUCCESS             MODEL-PACKAGE-(NUMBER)
 ----------------------------------------------------------------------------------------------------------
 Model                              1          2 -4.21761081E-03                              1_GWF-(2,1,6)
 Package                            1            -7.82709389E-05                      1_GWF-UZF-1-(21)-rech
 Model                              2          2 -5.13848163E-04                              1_GWF-(3,1,6)
 Package                            2             1.13230790E-04                      1_GWF-UZF-1-(21)-rech
 Model                              3          2 -6.20548747E-05                              1_GWF-(3,1,5)
 Package                            3             1.37953538E-05                      1_GWF-UZF-1-(21)-rech
 Model                              4          2 -7.45458897E-06                              1_GWF-(3,1,6)
 Package                            4             1.66599594E-06                      1_GWF-UZF-1-(20)-rech
 Model                              5          2 -8.92738587E-07       *                      1_GWF-(3,1,5)
 Package                            5             2.00134397E-07       *              1_GWF-UZF-1-(21)-rech
 ----------------------------------------------------------------------------------------------------------


 5 CALLS TO NUMERICAL SOLUTION IN TIME STEP 50 STRESS PERIOD 5
 10 TOTAL ITERATIONS


 Solution SLN_1 summary
 ----------------------------------------------------------------------
 Total formulate time:  .1562500000000000E-01 seconds
 Total solution time:   .000000000000000 seconds


 MEMORY MANAGER TOTAL STORAGE BY DATA TYPE, IN KILOBYTES
 -------------------------------
                    ALLOCATED   
 DATA TYPE           MEMORY     
 -------------------------------
 Character        2.4930000     
 Logical          4.40000000E-02
 Integer          8.3360000     
 Real             331.96800     
 -------------------------------
 Total            342.84100     
 -------------------------------


 
 Run end date and time (yyyy/mm/dd hh:mm:ss): 2025/02/21  7:37:26
 Elapsed run time:  0.507 Seconds
 Normal termination of simulation.
