                                   MODFLOW 6
                U.S. GEOLOGICAL SURVEY MODULAR HYDROLOGIC MODEL
                          GROUNDWATER FLOW MODEL (GWF)
                            VERSION 6.6.1 02/10/2025

   MODFLOW 6 compiled Feb 14 2025 13:40:10 with Intel(R) Fortran Intel(R) 64
   Compiler Classic for applications running on Intel(R) 64, Version 2021.7.0
                             Build 20220726_000000

This software has been approved for release by the U.S. Geological 
Survey (USGS). Although the software has been subjected to rigorous 
review, the USGS reserves the right to update the software as needed 
pursuant to further analysis and review. No warranty, expressed or 
implied, is made by the USGS or the U.S. Government as to the 
functionality of the software and related material nor shall the 
fact of release constitute any such warranty. Furthermore, the 
software is released on condition that neither the USGS nor the U.S. 
Government shall be held liable for any damages resulting from its 
authorized or unauthorized use. Also refer to the USGS Water 
Resources Software User Rights Notice for complete use, copyright, 
and distribution information.


As a work of the United States Government, this USGS product is 
in the public domain within the United States. You can copy, 
modify, distribute, and perform the work, even for commercial 
purposes, all without asking permission. Additionally, USGS 
waives copyright and related rights in the work worldwide 
through CC0 1.0 Universal Public Domain Dedication 
(https://creativecommons.org/publicdomain/zero/1.0/).

The following GNU Lesser General Public License (LGPL) libraries
are used in this USGS product:

    SPARSKIT version 2.0
      ilut, luson, and qsplit 
      (https://www-users.cse.umn.edu/~saad/software/SPARSKIT/)

    RCM - Reverse Cuthill McKee Ordering
      (https://people.math.sc.edu/Burkardt/f_src/rcm/rcm.html)

    BLAS - Basic Linear Algebra Subprograms Level 1
      (https://people.math.sc.edu/Burkardt/f_src/blas1_d/blas1_d.html)

    SPARSEKIT - Sparse Matrix Utility Package
      amux, dperm, dvperm, rperm, and cperm
      (https://people.sc.fsu.edu/~jburkardt/f77_src/sparsekit/sparsekit.html)

The following BSD-3 License libraries are used in this USGS product:

    Modern Fortran DAG Library
      Copyright (c) 2018, Jacob Williams
      All rights reserved.
      (https://github.com/jacobwilliams/daglib)

MODFLOW 6 compiler options: /O2 /heap-arrays:0 /fpe:0 /traceback /nologo /fpp
/c /module:win64\mod_mf6\ /object:win64\obj_mf6\

System command used to initiate simulation:
C:\Users\gross.DESKTOP-AIRQM2M\anaconda3\Scripts\mf6.exe

MODFLOW was compiled using uniform precision.

Real Variables
  KIND: 8
  TINY (smallest non-zero value):    2.225074-308
  HUGE (largest value):    1.797693+308
  PRECISION: 15
  SIZE IN BITS: 64

Integer Variables
  KIND: 4
  HUGE (largest value): 2147483647
  SIZE IN BITS: 32

Long Integer Variables
  KIND: 8
  HUGE (largest value): 9223372036854775807
  SIZE IN BITS: 64

Logical Variables
  KIND: 4
  SIZE IN BITS: 32
 
 NAMEFILE OPTIONS:
    NEWTON-RAPHSON method enabled for the model.
    FLOWS WILL BE SAVED TO BUDGET FILE SPECIFIED IN OUTPUT CONTROL
 END NAMEFILE OPTIONS:

 DIS -- STRUCTURED GRID DISCRETIZATION PACKAGE, VERSION 2 : 3/27/2014 - INPUT READ FROM MEMPATH: __INPUT__/GWF-LGR-CHILD/DIS                       


 NPF -- NODE PROPERTY FLOW PACKAGE, VERSION 1, 3/30/2015 INPUT READ FROM MEMPATH: __INPUT__/GWF-LGR-CHILD/NPF                       


 IC -- Initial Conditions Package, Version 8, 3/28/2015 input read from mempath: __INPUT__/GWF-LGR-CHILD/IC                        


 Setting Discretization Options
 End Setting Discretization Options

 Setting Discretization Dimensions
    NLAY = 6
    NROW = 15
    NCOL = 18
 End Setting Discretization Dimensions

 Setting Discretization Griddata
    DELR set from input file
    DELC set from input file
    TOP set from input file
    BOTM set from input file
    IDOMAIN set from input file
 End Setting Discretization Griddata

 Setting NPF Options
    Alternative cell averaging [1=logarithmic, 2=AMT-LMK, 3=AMT-HMK] set to: 2
 End Setting NPF Options

 Setting NPF Griddata
    ICELLTYPE set from input file
    K set from input file
    K33 set from input file
    K22 not provided.  Setting K22 = K.
 End Setting NPF Griddata


 SFR   -- SFR PACKAGE, VERSION 8, 2/22/2014 INPUT READ FROM UNIT 1016
 # File generated by Flopy version 3.9.1 on 05/26/2025 at 15:48:19.

 PROCESSING SFR OPTIONS
    FLOWS WILL BE SAVED TO BUDGET FILE SPECIFIED IN OUTPUT CONTROL

 OPENED gwf-lgr-child.sfr.bud
 FILE TYPE:DATA(BINARY)   UNIT 1022   STATUS:REPLACE             
 FORMAT:UNFORMATTED            ACCESS:STREAM              
 ACTION:READWRITE           

    SFR  BUDGET  WILL BE SAVED TO FILE: gwf-lgr-child.sfr.bud
    OPENED ON UNIT: 1022
    MOVER OPTION ENABLED
    TIME CONVERSION VALUE (86400.00000000000) SPECIFIED.
 END OF SFR OPTIONS

 PROCESSING SFR DIMENSIONS
    NREACHES = 89
 END OF SFR DIMENSIONS

 PROCESSING SFR PACKAGEDATA
 END OF SFR PACKAGEDATA

 PROCESSING SFR CONNECTIONDATA
 END OF SFR CONNECTIONDATA
    STRT set from input file
    BINARY GRID INFORMATION WILL BE WRITTEN TO:
      UNIT NUMBER: 1027
      FILE NAME: gwf-lgr-child.dis.grb

 OPENED gwf-lgr-child.dis.grb
 FILE TYPE:DATA(BINARY)   UNIT 1027   STATUS:REPLACE             
 FORMAT:UNFORMATTED            ACCESS:STREAM              
 ACTION:READWRITE           

      THE LAST TIME STEP WILL BE PRINTED
      THE LAST TIME STEP WILL BE PRINTED
 # File generated by Flopy version 3.9.1 on 05/26/2025 at 15:48:19.

 PROCESSING OC OPTIONS

    BUDGET INFORMATION WILL BE WRITTEN TO:
      UNIT NUMBER: 1028
      FILE NAME: gwf-lgr-child.bud

 OPENED gwf-lgr-child.bud
 FILE TYPE:DATA(BINARY)   UNIT 1028   STATUS:REPLACE             
 FORMAT:UNFORMATTED            ACCESS:STREAM              
 ACTION:READWRITE           

    HEAD INFORMATION WILL BE WRITTEN TO:
      UNIT NUMBER: 1029
      FILE NAME: gwf-lgr-child.hds

 OPENED gwf-lgr-child.hds
 FILE TYPE:DATA(BINARY)   UNIT 1029   STATUS:REPLACE             
 FORMAT:UNFORMATTED            ACCESS:STREAM              
 ACTION:READWRITE           

 END OF OC OPTIONS
 SFR PACKAGE (SFR-CHILD) CONVERSION DATA
    UNIT CONVERSION VALUE (86400.00000000000).


start timestep kper="1" kstp="1" mode="normal"


 BEGIN READING OUTPUT CONTROL FOR STRESS PERIOD 1
      THE LAST TIME STEP WILL BE SAVED
      THE LAST TIME STEP WILL BE SAVED
      THE LAST TIME STEP WILL BE PRINTED
      THE LAST TIME STEP WILL BE PRINTED

 END READING OUTPUT CONTROL FOR STRESS PERIOD 1
 UBDSV1 SAVING     FLOW-JA-FACE ON UNIT   1028 AT TIME STEP      1, STRESS PERIOD      1
 UBDSV06 SAVING              SFR IN MODEL GWF-LGR-CHILD    PACKAGE GWF-LGR-CHILD   CONNECTED TO MODEL GWF-LGR-CHILD    PACKAGE SFR-CHILD        ON UNIT   1028 AT TIME STEP      1, STRESS PERIOD      1
 UBDSV06 SAVING     FLOW-JA-FACE IN MODEL GWF-LGR-CHILD    PACKAGE SFR-CHILD       CONNECTED TO MODEL GWF-LGR-CHILD    PACKAGE SFR-CHILD        ON UNIT   1022 AT TIME STEP      1, STRESS PERIOD      1
 UBDSV06 SAVING              GWF IN MODEL GWF-LGR-CHILD    PACKAGE SFR-CHILD       CONNECTED TO MODEL GWF-LGR-CHILD    PACKAGE GWF-LGR-CHILD    ON UNIT   1022 AT TIME STEP      1, STRESS PERIOD      1
 UBDSV06 SAVING         RAINFALL IN MODEL GWF-LGR-CHILD    PACKAGE SFR-CHILD       CONNECTED TO MODEL GWF-LGR-CHILD    PACKAGE SFR-CHILD        ON UNIT   1022 AT TIME STEP      1, STRESS PERIOD      1
 UBDSV06 SAVING      EVAPORATION IN MODEL GWF-LGR-CHILD    PACKAGE SFR-CHILD       CONNECTED TO MODEL GWF-LGR-CHILD    PACKAGE SFR-CHILD        ON UNIT   1022 AT TIME STEP      1, STRESS PERIOD      1
 UBDSV06 SAVING           RUNOFF IN MODEL GWF-LGR-CHILD    PACKAGE SFR-CHILD       CONNECTED TO MODEL GWF-LGR-CHILD    PACKAGE SFR-CHILD        ON UNIT   1022 AT TIME STEP      1, STRESS PERIOD      1
 UBDSV06 SAVING       EXT-INFLOW IN MODEL GWF-LGR-CHILD    PACKAGE SFR-CHILD       CONNECTED TO MODEL GWF-LGR-CHILD    PACKAGE SFR-CHILD        ON UNIT   1022 AT TIME STEP      1, STRESS PERIOD      1
 UBDSV06 SAVING      EXT-OUTFLOW IN MODEL GWF-LGR-CHILD    PACKAGE SFR-CHILD       CONNECTED TO MODEL GWF-LGR-CHILD    PACKAGE SFR-CHILD        ON UNIT   1022 AT TIME STEP      1, STRESS PERIOD      1
 UBDSV06 SAVING          STORAGE IN MODEL GWF-LGR-CHILD    PACKAGE SFR-CHILD       CONNECTED TO MODEL GWF-LGR-CHILD    PACKAGE SFR-CHILD        ON UNIT   1022 AT TIME STEP      1, STRESS PERIOD      1
 UBDSV06 SAVING         FROM-MVR IN MODEL GWF-LGR-CHILD    PACKAGE SFR-CHILD       CONNECTED TO MODEL GWF-LGR-CHILD    PACKAGE SFR-CHILD        ON UNIT   1022 AT TIME STEP      1, STRESS PERIOD      1
 UBDSV06 SAVING           TO-MVR IN MODEL GWF-LGR-CHILD    PACKAGE SFR-CHILD       CONNECTED TO MODEL GWF-LGR-CHILD    PACKAGE SFR-CHILD        ON UNIT   1022 AT TIME STEP      1, STRESS PERIOD      1
1
  HEAD IN LAYER   1 AT END OF TIME STEP   1 IN STRESS PERIOD    1
  ---------------------------------------------------------------------------

                1               2               3               4               5               6               7               8               9              10
               11              12              13              14              15              16              17              18
 ................................................................................................................................................................................................................................................................................................
   1      48.7437         48.6675         48.5910         48.3880         48.2626         48.1573         47.8559         47.7518         47.6459         47.3427    
          47.2145         47.0850         46.8822         46.8454         46.7919         46.6089         46.5496         46.5004    
   2      48.7296         48.6360         48.5485         48.3680         48.2272         48.1107         47.8472         47.7302         47.6077         47.3212    
          47.1481         47.1046         46.9043         46.8011         46.7583         46.5980         46.5316         46.4757    
   3      48.7081         48.5954         48.5130         48.3042         48.1902         48.0774         47.8320         47.7115         47.5806         47.2715    
          47.1656         47.0979         46.8949         46.7777         46.7330         46.5775         46.5089         46.4514    
   4      48.6748         48.5564         48.4729         48.2559         48.1391         48.0362         47.8212         47.6924         47.5541         47.2357    
          47.1683         47.0800         46.8709         46.7489         46.7018         46.5442         46.4732         46.4125    
   5      48.6535         48.5304         48.4458         48.2261         48.1166         48.0128         47.8076         47.7047         47.5428         47.2255    
          47.1591         47.0651         46.8510         46.7252         46.6784         46.5163         46.4413         46.3815    
   6      48.6351         48.5077         48.4218         48.1999         48.0973         47.9845         47.7592         47.6591         47.5463         47.2196    
          47.1473         47.0490         46.8267         46.7032         46.6549         46.4816         46.3951         46.3368    
   7      48.6110         48.4799         48.3908         48.1658         48.0664         47.9450         47.7182         47.6141         47.5246         47.2083    
          47.1302         47.0261         46.7754         46.6895         46.6246         46.4174         46.2782         46.2209    
   8      48.5976         48.4637         48.3588         48.1469         48.0230         47.9088         47.6894         47.5854         47.4701         47.2025    
          47.1192         47.0100         46.7327         46.6887         46.6045         46.3471         46.3321         46.2792    
   9      48.5898         48.4718         48.3546         48.1002         47.9447         47.8473         47.6628         47.5548         47.3979         47.2086    
          47.1118         46.9996         46.7192         46.6808         46.5949         46.3461         46.3394         46.2936    
  10      48.5795         48.4628         48.3356         48.0328         47.9180         47.8504         47.6382         47.5267         47.3735         47.2001    
          47.1033         46.9898         46.7067         46.6712         46.5884         46.3589         46.3263         46.3055    
  11      48.5746         48.4569         48.3224         47.9824         47.9318         47.8426         47.6225         47.5069         47.3710         47.1967    
          47.0998         46.9853         46.6972         46.6656         46.5865         46.3748         46.3354         46.3139    
  12      48.5740         48.4557         48.3178         47.9681         47.9262         47.8337         47.6089         47.4694         47.3923         47.1995    
          47.1014         46.9863         46.6904         46.6612         46.5851         46.3752         46.3647         46.3264    
  13      48.5767         48.4592         48.3204         47.9595         47.9139         47.8212         47.5924         47.4576         47.4066         47.2054    
          47.1076         46.9946         46.6932         46.6493         46.5792         46.3903         46.3853         46.3462    
  14      48.5782         48.4663         48.3330         47.9727         47.8875         47.8032         47.5446         47.4957         47.4202         47.2098    
          47.1154         47.0116         46.7612         46.5936         46.5257         46.4185         46.4012         46.3607    
  15      48.5759         48.4811         48.3679         48.0262         47.8381         47.7527         47.5729         47.5181         47.4444         47.2093    
          47.1264         47.0384         46.7856         46.6877         46.6233         46.4599         46.4180         46.3794    
1
  HEAD IN LAYER   2 AT END OF TIME STEP   1 IN STRESS PERIOD    1
  ---------------------------------------------------------------------------

                1               2               3               4               5               6               7               8               9              10
               11              12              13              14              15              16              17              18
 ................................................................................................................................................................................................................................................................................................
   1      48.7407         48.6668         48.5917         48.3742         48.2611         48.1585         47.8529         47.7512         47.6478         47.3404    
          47.2195         47.1082         46.8935         46.8462         46.7930         46.6073         46.5492         46.5012    
   2      48.7267         48.6363         48.5507         48.3532         48.2266         48.1132         47.8443         47.7301         47.6106         47.3201    
          47.1693         47.1091         46.9039         46.8098         46.7604         46.5965         46.5316         46.4771    
   3      48.7056         48.6003         48.5160         48.3013         48.1908         48.0807         47.8291         47.7117         47.5843         47.2813    
          47.1741         47.1013         46.8939         46.7867         46.7356         46.5764         46.5092         46.4533    
   4      48.6713         48.5609         48.4752         48.2528         48.1418         48.0394         47.8122         47.6910         47.5571         47.2484    
          47.1693         47.0823         46.8690         46.7570         46.7038         46.5422         46.4727         46.4136    
   5      48.6504         48.5356         48.4486         48.2235         48.1175         48.0152         47.7964         47.6924         47.5453         47.2367    
          47.1598         47.0676         46.8494         46.7345         46.6808         46.5149         46.4417         46.3834    
   6      48.6323         48.5137         48.4252         48.1977         48.0963         47.9875         47.7561         47.6558         47.5417         47.2291    
          47.1481         47.0518         46.8260         46.7138         46.6578         46.4814         46.3978         46.3410    
   7      48.6075         48.4858         48.3938         48.1624         48.0616         47.9470         47.7150         47.6129         47.5160         47.2153    
          47.1305         47.0288         46.7818         46.6954         46.6270         46.4225         46.3076         46.2501    
   8      48.5943         48.4705         48.3668         48.1400         48.0218         47.9122         47.6869         47.5844         47.4711         47.2075    
          47.1195         47.0131         46.7473         46.6898         46.6075         46.3697         46.3351         46.2829    
   9      48.5865         48.4725         48.3582         48.0991         47.9600         47.8634         47.6612         47.5557         47.4157         47.2075    
          47.1122         47.0029         46.7336         46.6819         46.5980         46.3655         46.3411         46.2957    
  10      48.5757         48.4628         48.3391         48.0416         47.9302         47.8540         47.6357         47.5272         47.3897         47.1984    
          47.1034         46.9929         46.7211         46.6720         46.5911         46.3741         46.3346         46.3074    
  11      48.5709         48.4570         48.3263         48.0013         47.9336         47.8453         47.6203         47.5082         47.3852         47.1949    
          47.0999         46.9886         46.7128         46.6665         46.5892         46.3859         46.3428         46.3156    
  12      48.5703         48.4558         48.3219         47.9875         47.9276         47.8366         47.6073         47.4809         47.3987         47.1975    
          47.1014         46.9896         46.7083         46.6625         46.5880         46.3895         46.3656         46.3277    
  13      48.5732         48.4594         48.3246         47.9800         47.9155         47.8243         47.5920         47.4723         47.4097         47.2034    
          47.1078         46.9980         46.7143         46.6536         46.5837         46.4048         46.3862         46.3477    
  14      48.5746         48.4663         48.3368         47.9902         47.8951         47.8083         47.5604         47.4980         47.4225         47.2077    
          47.1154         47.0142         46.7616         46.6219         46.5536         46.4274         46.4016         46.3619    
  15      48.5726         48.4808         48.3703         48.0261         47.8671         47.7829         47.5768         47.5184         47.4459         47.2073    
          47.1262         47.0401         46.7840         46.6894         46.6264         46.4596         46.4178         46.3801    
1
  HEAD IN LAYER   3 AT END OF TIME STEP   1 IN STRESS PERIOD    1
  ---------------------------------------------------------------------------

                1               2               3               4               5               6               7               8               9              10
               11              12              13              14              15              16              17              18
 ................................................................................................................................................................................................................................................................................................
   1      48.7344         48.6653         48.5937         48.3590         48.2582         48.1615         47.8462         47.7499         47.6521         47.3349    
          47.2240         47.1276         46.8988         46.8470         46.7954         46.6033         46.5482         46.5031    
   2      48.7209         48.6368         48.5554         48.3385         48.2258         48.1191         47.8377         47.7299         47.6173         47.3166    
          47.1849         47.1179         46.9017         46.8165         46.7650         46.5930         46.5315         46.4805    
   3      48.7006         48.6049         48.5228         48.2954         48.1922         48.0882         47.8227         47.7122         47.5927         47.2855    
          47.1822         47.1088         46.8912         46.7946         46.7415         46.5736         46.5101         46.4578    
   4      48.6641         48.5639         48.4803         48.2456         48.1427         48.0449         47.8003         47.6886         47.5638         47.2539    
          47.1708         47.0877         46.8641         46.7631         46.7080         46.5374         46.4717         46.4164    
   5      48.6440         48.5399         48.4549         48.2176         48.1182         48.0208         47.7836         47.6836         47.5515         47.2416    
          47.1610         47.0735         46.8454         46.7421         46.6861         46.5114         46.4423         46.3879    
   6      48.6267         48.5192         48.4326         48.1928         48.0963         47.9944         47.7496         47.6532         47.5435         47.2330    
          47.1496         47.0585         46.8236         46.7227         46.6643         46.4801         46.4025         46.3493    
   7      48.6003         48.4903         48.4002         48.1547         48.0575         47.9518         47.7076         47.6107         47.5139         47.2164    
          47.1307         47.0348         46.7834         46.7002         46.6323         46.4249         46.3285         46.2738    
   8      48.5874         48.4757         48.3769         48.1313         48.0217         47.9195         47.6811         47.5837         47.4767         47.2074    
          47.1202         47.0201         46.7552         46.6918         46.6139         46.3842         46.3397         46.2902    
   9      48.5797         48.4740         48.3663         48.0959         47.9724         47.8800         47.6570         47.5575         47.4336         47.2039    
          47.1130         47.0104         46.7422         46.6839         46.6049         46.3787         46.3442         46.3005    
  10      48.5680         48.4629         48.3467         48.0446         47.9395         47.8612         47.6298         47.5278         47.4060         47.1938    
          47.1036         47.0000         46.7294         46.6734         46.5972         46.3845         46.3417         46.3116    
  11      48.5632         48.4572         48.3349         48.0119         47.9364         47.8517         47.6149         47.5102         47.4001         47.1902    
          47.1002         46.9958         46.7222         46.6681         46.5950         46.3933         46.3489         46.3192    
  12      48.5627         48.4562         48.3309         47.9993         47.9302         47.8434         47.6032         47.4901         47.4084         47.1925    
          47.1017         46.9969         46.7195         46.6648         46.5943         46.3985         46.3671         46.3306    
  13      48.5659         48.4600         48.3338         47.9922         47.9184         47.8313         47.5896         47.4835         47.4165         47.1986    
          47.1083         47.0054         46.7271         46.6595         46.5926         46.4146         46.3880         46.3513    
  14      48.5674         48.4665         48.3450         47.9997         47.9029         47.8182         47.5684         47.5010         47.4278         47.2026    
          47.1154         47.0201         46.7606         46.6426         46.5770         46.4330         46.4024         46.3647    
  15      48.5659         48.4801         48.3758         48.0240         47.8886         47.8083         47.5781         47.5188         47.4496         47.2025    
          47.1256         47.0442         46.7799         46.6919         46.6322         46.4580         46.4173         46.3818    
1
  HEAD IN LAYER   4 AT END OF TIME STEP   1 IN STRESS PERIOD    1
  ---------------------------------------------------------------------------

                1               2               3               4               5               6               7               8               9              10
               11              12              13              14              15              16              17              18
 ................................................................................................................................................................................................................................................................................................
   1      48.7248         48.6629         48.5976         48.3411         48.2538         48.1666         47.8350         47.7479         47.6594         47.3252    
          47.2275         47.1452         46.8984         46.8472         46.7995         46.5966         46.5465         46.5063    
   2      48.7121         48.6374         48.5634         48.3224         48.2248         48.1288         47.8270         47.7298         47.6284         47.3093    
          47.1966         47.1306         46.8970         46.8219         46.7723         46.5872         46.5315         46.4861    
   3      48.6934         48.6096         48.5340         48.2867         48.1946         48.1006         47.8127         47.7134         47.6063         47.2844    
          47.1900         47.1208         46.8862         46.8020         46.7509         46.5692         46.5118         46.4652    
   4      48.6530         48.5655         48.4882         48.2337         48.1421         48.0530         47.7847         47.6854         47.5744         47.2523    
          47.1721         47.0964         46.8555         46.7673         46.7146         46.5292         46.4698         46.4206    
   5      48.6343         48.5435         48.4650         48.2079         48.1186         48.0303         47.7683         47.6770         47.5621         47.2402    
          47.1624         47.0831         46.8383         46.7483         46.6945         46.5055         46.4433         46.3948    
   6      48.6183         48.5247         48.4446         48.1849         48.0974         48.0060         47.7398         47.6517         47.5520         47.2313    
          47.1518         47.0694         46.8188         46.7308         46.6747         46.4775         46.4087         46.3612    
   7      48.5891         48.4933         48.4101         48.1423         48.0535         47.9596         47.6955         47.6077         47.5174         47.2115    
          47.1308         47.0443         46.7799         46.7037         46.6405         46.4235         46.3433         46.2943    
   8      48.5770         48.4799         48.3901         48.1197         48.0221         47.9308         47.6713         47.5831         47.4869         47.2022    
          47.1209         47.0311         46.7569         46.6941         46.6238         46.3918         46.3450         46.3003    
   9      48.5697         48.4761         48.3792         48.0898         47.9829         47.8987         47.6498         47.5601         47.4534         47.1971    
          47.1142         47.0224         46.7453         46.6866         46.6156         46.3862         46.3479         46.3082    
  10      48.5563         48.4630         48.3588         48.0413         47.9464         47.8719         47.6197         47.5282         47.4235         47.1856    
          47.1037         47.0110         46.7318         46.6750         46.6064         46.3902         46.3479         46.3183    
  11      48.5518         48.4575         48.3482         48.0149         47.9397         47.8620         47.6059         47.5124         47.4167         47.1821    
          47.1005         47.0071         46.7257         46.6701         46.6042         46.3968         46.3540         46.3249    
  12      48.5514         48.4568         48.3449         48.0040         47.9336         47.8544         47.5959         47.4977         47.4216         47.1840    
          47.1019         47.0083         46.7241         46.6677         46.6040         46.4026         46.3686         46.3352    
  13      48.5551         48.4610         48.3482         47.9964         47.9218         47.8423         47.5842         47.4922         47.4271         47.1905    
          47.1091         47.0172         46.7329         46.6661         46.6053         46.4203         46.3904         46.3571    
  14      48.5566         48.4667         48.3578         48.0016         47.9104         47.8323         47.5699         47.5041         47.4364         47.1942    
          47.1155         47.0297         46.7567         46.6580         46.5983         46.4353         46.4033         46.3694    
  15      48.5558         48.4791         48.3849         48.0183         47.9044         47.8313         47.5757         47.5190         47.4558         47.1943    
          47.1247         47.0510         46.7726         46.6942         46.6402         46.4544         46.4165         46.3846    
1
  HEAD IN LAYER   5 AT END OF TIME STEP   1 IN STRESS PERIOD    1
  ---------------------------------------------------------------------------

                1               2               3               4               5               6               7               8               9              10
               11              12              13              14              15              16              17              18
 ................................................................................................................................................................................................................................................................................................
   1      48.7109         48.6595         48.6038         48.3196         48.2481         48.1747         47.8184         47.7450         47.6703         47.3103    
          47.2294         47.1627         46.8921         46.8464         46.8054         46.5865         46.5441         46.5106    
   2      48.6998         48.6381         48.5754         48.3035         48.2239         48.1434         47.8113         47.7297         47.6447         47.2972    
          47.2057         47.1475         46.8886         46.8263         46.7829         46.5785         46.5315         46.4938    
   3      48.6835         48.6151         48.5507         48.2750         48.1983         48.1193         47.7986         47.7154         47.6261         47.2778    
          47.1979         47.1380         46.8785         46.8093         46.7646         46.5627         46.5144         46.4758    
   4      48.6368         48.5655         48.4995         48.2158         48.1396         48.0644         47.7639         47.6814         47.5893         47.2431    
          47.1729         47.1087         46.8421         46.7697         46.7236         46.5168         46.4668         46.4261    
   5      48.6204         48.5465         48.4795         48.1936         48.1189         48.0444         47.7492         47.6721         47.5781         47.2323    
          47.1640         47.0971         46.8272         46.7535         46.7065         46.4965         46.4443         46.4042    
   6      48.6066         48.5305         48.4622         48.1736         48.1000         48.0234         47.7262         47.6516         47.5676         47.2240    
          47.1547         47.0854         46.8108         46.7385         46.6896         46.4730         46.4160         46.3768    
   7      48.5728         48.4950         48.4240         48.1240         48.0488         47.9708         47.6775         47.6035         47.5264         47.2000    
          47.1304         47.0579         46.7706         46.7058         46.6517         46.4173         46.3533         46.3125    
   8      48.5622         48.4833         48.4076         48.1041         48.0229         47.9466         47.6570         47.5827         47.5023         47.1915    
          47.1217         47.0467         46.7523         46.6964         46.6375         46.3929         46.3500         46.3126    
   9      48.5557         48.4788         48.3977         48.0800         47.9927         47.9214         47.6389         47.5636         47.4769         47.1862    
          47.1158         47.0393         46.7427         46.6899         46.6304         46.3881         46.3518         46.3182    
  10      48.5398         48.4629         48.3759         48.0309         47.9509         47.8863         47.6044         47.5280         47.4431         47.1728    
          47.1038         47.0265         46.7279         46.6764         46.6191         46.3913         46.3534         46.3271    
  11      48.5356         48.4580         48.3670         48.0101         47.9430         47.8768         47.5925         47.5147         47.4363         47.1696    
          47.1008         47.0231         46.7229         46.6722         46.6170         46.3960         46.3582         46.3325    
  12      48.5355         48.4575         48.3645         48.0013         47.9375         47.8703         47.5845         47.5042         47.4389         47.1712    
          47.1022         47.0243         46.7223         46.6707         46.6172         46.4015         46.3696         46.3413    
  13      48.5399         48.4624         48.3684         47.9926         47.9254         47.8580         47.5745         47.4992         47.4419         47.1786    
          47.1103         47.0337         46.7321         46.6730         46.6217         46.4220         46.3934         46.3654    
  14      48.5412         48.4671         48.3762         47.9960         47.9172         47.8507         47.5650         47.5070         47.4491         47.1817    
          47.1156         47.0437         46.7487         46.6697         46.6194         46.4339         46.4043         46.3758    
  15      48.5412         48.4776         48.3983         48.0073         47.9159         47.8539         47.5688         47.5189         47.4650         47.1821    
          47.1233         47.0612         46.7612         46.6959         46.6504         46.4480         46.4151         46.3884    
1
  HEAD IN LAYER   6 AT END OF TIME STEP   1 IN STRESS PERIOD    1
  ---------------------------------------------------------------------------

                1               2               3               4               5               6               7               8               9              10
               11              12              13              14              15              16              17              18
 ................................................................................................................................................................................................................................................................................................
   1      48.6917         48.6546         48.6133         48.2924         48.2408         48.1869         47.7949         47.7409         47.6859         47.2882    
          47.2295         47.1815         46.8791         46.8443         46.8137         46.5721         46.5408         46.5165    
   2      48.6832         48.6390         48.5927         48.2804         48.2231         48.1641         47.7894         47.7296         47.6674         47.2787    
          47.2130         47.1692         46.8754         46.8300         46.7974         46.5661         46.5316         46.5043    
   3      48.6708         48.6221         48.5745         48.2598         48.2041         48.1461         47.7796         47.7188         47.6537         47.2650    
          47.2062         47.1616         46.8673         46.8173         46.7838         46.5541         46.5186         46.4908    
   4      48.6142         48.5635         48.5147         48.1904         48.1349         48.0797         47.7362         47.6762         47.6094         47.2253    
          47.1726         47.1253         46.8224         46.7701         46.7355         46.4988         46.4620         46.4327    
   5      48.6017         48.5492         48.4997         48.1736         48.1191         48.0644         47.7249         47.6683         47.6006         47.2169    
          47.1656         47.1165         46.8111         46.7579         46.7227         46.4836         46.4454         46.4165    
   6      48.5913         48.5373         48.4868         48.1585         48.1045         48.0486         47.7082         47.6534         47.5918         47.2104    
          47.1585         47.1077         46.7990         46.7467         46.7101         46.4663         46.4249         46.3966    
   7      48.5504         48.4952         48.4426         48.0980         48.0427         47.9860         47.6521         47.5978         47.5409         47.1809    
          47.1291         47.0761         46.7541         46.7063         46.6662         46.4047         46.3592         46.3297    
   8      48.5422         48.4862         48.4306         48.0829         48.0238         47.9681         47.6369         47.5824         47.5237         47.1742    
          47.1224         47.0678         46.7411         46.6987         46.6556         46.3876         46.3547         46.3275    
   9      48.5372         48.4823         48.4230         48.0656         48.0027         47.9503         47.6235         47.5685         47.5062         47.1699    
          47.1180         47.0623         46.7341         46.6937         46.6503         46.3842         46.3557         46.3310    
  10      48.5174         48.4624         48.3989         48.0118         47.9531         47.9049         47.5824         47.5267         47.4659         47.1542    
          47.1034         47.0473         46.7170         46.6775         46.6357         46.3873         46.3583         46.3387    
  11      48.5142         48.4586         48.3924         47.9971         47.9461         47.8971         47.5734         47.5168         47.4603         47.1516    
          47.1011         47.0446         46.7133         46.6743         46.6340         46.3904         46.3617         46.3425    
  12      48.5142         48.4584         48.3907         47.9908         47.9419         47.8924         47.5678         47.5099         47.4616         47.1528    
          47.1022         47.0456         46.7132         46.6735         46.6344         46.3948         46.3698         46.3490    
  13      48.5197         48.4641         48.3958         47.9800         47.9287         47.8790         47.5593         47.5049         47.4618         47.1618    
          47.1118         47.0561         46.7245         46.6799         46.6423         46.4198         46.3972         46.3767    
  14      48.5208         48.4676         48.4013         47.9819         47.9233         47.8741         47.5534         47.5097         47.4667         47.1641    
          47.1156         47.0631         46.7352         46.6790         46.6421         46.4283         46.4052         46.3844    
  15      48.5212         48.4753         48.4171         47.9893         47.9239         47.8782         47.5559         47.5181         47.4781         47.1647    
          47.1214         47.0756         46.7440         46.6964         46.6630         46.4378         46.4130         46.3935    

 HEAD WILL BE SAVED ON UNIT 1029 AT END OF TIME STEP    1, STRESS PERIOD    1


  SFR-CHILD BUDGET FOR ENTIRE MODEL AT END OF TIME STEP    1, STRESS PERIOD   1
  ------------------------------------------------------------------------------

     CUMULATIVE SFR-CHILD      L**3       RATES FOR THIS TIME STEP      L**3/T
     ------------------                 ------------------------

           IN:                                      IN:
           ---                                      ---
                 GWF =         158.4703                   GWF =         158.4703
            RAINFALL =           0.0000              RAINFALL =           0.0000
         EVAPORATION =           0.0000           EVAPORATION =           0.0000
              RUNOFF =           0.0000                RUNOFF =           0.0000
          EXT-INFLOW =           0.0000            EXT-INFLOW =           0.0000
         EXT-OUTFLOW =       5.3002E-06           EXT-OUTFLOW =       5.3002E-06
             STORAGE =           0.0000               STORAGE =           0.0000
            FROM-MVR =           8.4638              FROM-MVR =           8.4638
              TO-MVR =           0.0000                TO-MVR =           0.0000

            TOTAL IN =         166.9341              TOTAL IN =         166.9341

          OUT:                                     OUT:
          ----                                     ----
                 GWF =          16.3985                   GWF =          16.3985
            RAINFALL =           0.0000              RAINFALL =           0.0000
         EVAPORATION =           0.0000           EVAPORATION =           0.0000
              RUNOFF =           0.0000                RUNOFF =           0.0000
          EXT-INFLOW =           0.0000            EXT-INFLOW =           0.0000
         EXT-OUTFLOW =           0.0000           EXT-OUTFLOW =           0.0000
             STORAGE =           0.0000               STORAGE =           0.0000
            FROM-MVR =           0.0000              FROM-MVR =           0.0000
              TO-MVR =         150.5356                TO-MVR =         150.5356

           TOTAL OUT =         166.9341             TOTAL OUT =         166.9341

            IN - OUT =       5.6843E-14              IN - OUT =       5.6843E-14

 PERCENT DISCREPANCY =           0.00     PERCENT DISCREPANCY =           0.00



  VOLUME BUDGET FOR ENTIRE MODEL AT END OF TIME STEP    1, STRESS PERIOD   1
  ---------------------------------------------------------------------------------------------------

     CUMULATIVE VOLUME      L**3       RATES FOR THIS TIME STEP      L**3/T          PACKAGE NAME    
     ------------------                 ------------------------                     ----------------

           IN:                                      IN:
           ---                                      ---
                 SFR =          16.3985                   SFR =          16.3985     SFR-CHILD                        
        FLOW-JA-FACE =         492.8134          FLOW-JA-FACE =         492.8134     GWF-GWF_1                        
    FLOW-JA-FACE-CHD =           0.0000      FLOW-JA-FACE-CHD =           0.0000     GWF-GWF_1                        

            TOTAL IN =         509.2119              TOTAL IN =         509.2119

          OUT:                                     OUT:
          ----                                     ----
                 SFR =         158.4702                   SFR =         158.4702     SFR-CHILD                        
        FLOW-JA-FACE =         350.7417          FLOW-JA-FACE =         350.7417     GWF-GWF_1                        
    FLOW-JA-FACE-CHD =           0.0000      FLOW-JA-FACE-CHD =           0.0000     GWF-GWF_1                        

           TOTAL OUT =         509.2119             TOTAL OUT =         509.2119

            IN - OUT =      -1.2924E-05              IN - OUT =      -1.2924E-05

 PERCENT DISCREPANCY =          -0.00     PERCENT DISCREPANCY =          -0.00




         TIME SUMMARY AT END OF TIME STEP    1 IN STRESS PERIOD    1
                    SECONDS     MINUTES      HOURS       DAYS        YEARS
                    -----------------------------------------------------------
   TIME STEP LENGTH  86400.      1440.0      24.000      1.0000     2.73785E-03
 STRESS PERIOD TIME  86400.      1440.0      24.000      1.0000     2.73785E-03
         TOTAL TIME  86400.      1440.0      24.000      1.0000     2.73785E-03


end timestep


 EXG GWF-GWF_1   PERIOD      1   STEP        1
 -----------------------------------------------
   NUMBER   CELLID                    RATE      
 -----------------------------------------------
     1      (1,1,1)               0.75009674    
     2      (1,1,1)               4.24716001E-02
     3      (1,1,2)               0.32837442    
     4      (1,1,3)               0.61304311    
     5      (1,1,4)              -7.06647747E-02
     6      (1,1,5)               0.39705722    
     7      (1,1,6)               0.78504493    
     8      (1,1,7)              -0.13963486    
     9      (1,1,8)               0.23490980    
     10     (1,1,9)               0.61119492    
     11     (1,1,10)             -5.83451322E-02
     12     (1,1,11)              0.38836131    
     13     (1,1,12)              0.83262963    
     14     (1,1,13)              0.15609336    
     15     (1,1,14)              0.28300048    
     16     (1,1,15)              0.46624242    
     17     (1,1,16)             -5.19927414E-02
     18     (1,1,17)              0.15452706    
     19     (1,1,18)             -0.41299266    
     20     (1,1,18)              0.32474768    
     21     (1,2,1)               0.77458030    
     22     (1,2,18)             -0.37669894    
     23     (1,3,1)               0.81177521    
     24     (1,3,18)             -0.34125231    
     25     (1,4,1)               0.78294385    
     26     (1,4,18)             -0.40096728    
     27     (1,5,1)               0.81938134    
     28     (1,5,18)             -0.35655120    
     29     (1,6,1)               0.85076169    
     30     (1,6,18)             -0.29258342    
     31     (1,7,1)               0.83560105    
     32     (1,7,18)             -0.30767638    
     33     (1,8,1)               0.85832765    
     34     (1,8,18)             -0.38880450    
     35     (1,9,1)               0.87148447    
     36     (1,9,18)             -0.40888678    
     37     (1,10,1)              0.86754286    
     38     (1,10,18)            -0.30516198    
     39     (1,11,1)              0.87580734    
     40     (1,11,18)            -0.31713389    
     41     (1,12,1)              0.87687543    
     42     (1,12,18)            -0.33484097    
     43     (1,13,1)              0.89199378    
     44     (1,13,18)            -0.29497523    
     45     (1,14,1)              0.88952372    
     46     (1,14,18)            -0.31578803    
     47     (1,15,1)              0.89338854    
     48     (1,15,1)             -0.14049852    
     49     (1,15,2)              0.20103813    
     50     (1,15,3)              0.60416968    
     51     (1,15,4)             -8.50219236E-02
     52     (1,15,5)              0.56290832    
     53     (1,15,6)              0.85224484    
     54     (1,15,7)             -1.86054181E-02
     55     (1,15,8)              0.16798534    
     56     (1,15,9)              0.41714240    
     57     (1,15,10)            -0.15970724    
     58     (1,15,11)             0.12056121    
     59     (1,15,12)             0.41501782    
     60     (1,15,13)            -5.43936629E-02
     61     (1,15,14)             0.27259410    
     62     (1,15,15)             0.48536907    
     63     (1,15,16)            -1.39382447E-02
     64     (1,15,17)             0.12774490    
     65     (1,15,18)            -0.34264896    
     66     (1,15,18)             0.25736286    
     67     (2,1,1)               0.78841260    
     68     (2,1,1)               5.97125549E-02
     69     (2,1,2)               0.36758536    
     70     (2,1,3)               0.68053116    
     71     (2,1,4)              -2.07943534E-02
     72     (2,1,5)               0.45024362    
     73     (2,1,6)               0.87773161    
     74     (2,1,7)              -0.14877784    
     75     (2,1,8)               0.27517937    
     76     (2,1,9)               0.70610816    
     77     (2,1,10)             -5.97801866E-02
     78     (2,1,11)              0.44427694    
     79     (2,1,12)              0.90786892    
     80     (2,1,13)              0.14092106    
     81     (2,1,14)              0.33784739    
     82     (2,1,15)              0.55985699    
     83     (2,1,16)             -5.51549116E-02
     84     (2,1,17)              0.18694907    
     85     (2,1,18)             -0.53024983    
     86     (2,1,18)              0.38687509    
     87     (2,2,1)               0.81425566    
     88     (2,2,18)             -0.48564489    
     89     (2,3,1)               0.85331735    
     90     (2,3,18)             -0.44159712    
     91     (2,4,1)               0.83152894    
     92     (2,4,18)             -0.52594822    
     93     (2,5,1)               0.87032170    
     94     (2,5,18)             -0.47008725    
     95     (2,6,1)               0.90373654    
     96     (2,6,18)             -0.39148940    
     97     (2,7,1)               0.89378839    
     98     (2,7,18)             -0.47039683    
     99     (2,8,1)               0.91829113    
    100     (2,8,18)             -0.53122931    
    101     (2,9,1)               0.93273717    
    102     (2,9,18)             -0.55488519    
    103     (2,10,1)              0.93132085    
    104     (2,10,18)            -0.40759455    
    105     (2,11,1)              0.94033188    
    106     (2,11,18)            -0.42274251    
    107     (2,12,1)              0.94141208    
    108     (2,12,18)            -0.44517336    
    109     (2,13,1)              0.95577884    
    110     (2,13,18)            -0.38897472    
    111     (2,14,1)              0.95304540    
    112     (2,14,18)            -0.41529246    
    113     (2,15,1)              0.95678678    
    114     (2,15,1)             -0.14840536    
    115     (2,15,2)              0.23433551    
    116     (2,15,3)              0.69476685    
    117     (2,15,4)             -0.10149339    
    118     (2,15,5)              0.56089336    
    119     (2,15,6)              0.91192965    
    120     (2,15,7)             -3.89428648E-02
    121     (2,15,8)              0.20446306    
    122     (2,15,9)              0.50625355    
    123     (2,15,10)            -0.18806393    
    124     (2,15,11)             0.15007806    
    125     (2,15,12)             0.50855565    
    126     (2,15,13)            -6.08782756E-02
    127     (2,15,14)             0.33339669    
    128     (2,15,15)             0.59593064    
    129     (2,15,16)            -1.56879477E-02
    130     (2,15,17)             0.15841897    
    131     (2,15,18)            -0.44902780    
    132     (2,15,18)             0.31549467    
    133     (3,1,1)               0.74866228    
    134     (3,1,1)               8.59508994E-02
    135     (3,1,2)               0.37370234    
    136     (3,1,3)               0.67195236    
    137     (3,1,4)               4.25786946E-02
    138     (3,1,5)               0.46247080    
    139     (3,1,6)               0.86536140    
    140     (3,1,7)              -0.12056600    
    141     (3,1,8)               0.28037727    
    142     (3,1,9)               0.68795419    
    143     (3,1,10)             -3.65692018E-02
    144     (3,1,11)              0.42532068    
    145     (3,1,12)              0.82692692    
    146     (3,1,13)              0.11890829    
    147     (3,1,14)              0.33463403    
    148     (3,1,15)              0.54959473    
    149     (3,1,16)             -3.85718411E-02
    150     (3,1,17)              0.19110815    
    151     (3,1,18)             -0.53382586    
    152     (3,1,18)              0.37882903    
    153     (3,2,1)               0.77208274    
    154     (3,2,18)             -0.49197248    
    155     (3,3,1)               0.80710974    
    156     (3,3,18)             -0.44989056    
    157     (3,4,1)               0.79057531    
    158     (3,4,18)             -0.53104231    
    159     (3,5,1)               0.82552276    
    160     (3,5,18)             -0.47827096    
    161     (3,6,1)               0.85547775    
    162     (3,6,18)             -0.40684535    
    163     (3,7,1)               0.84896015    
    164     (3,7,18)             -0.51430749    
    165     (3,8,1)               0.87117995    
    166     (3,8,18)             -0.54466414    
    167     (3,9,1)               0.88452462    
    168     (3,9,18)             -0.56388229    
    169     (3,10,1)              0.88487931    
    170     (3,10,18)            -0.41549284    
    171     (3,11,1)              0.89316312    
    172     (3,11,18)            -0.42951472    
    173     (3,12,1)              0.89399472    
    174     (3,12,18)            -0.45058235    
    175     (3,13,1)              0.90694189    
    176     (3,13,18)            -0.39562978    
    177     (3,14,1)              0.90435692    
    178     (3,14,18)            -0.42056099    
    179     (3,15,1)              0.90693452    
    180     (3,15,1)             -0.12044156    
    181     (3,15,2)              0.23695108    
    182     (3,15,3)              0.67159281    
    183     (3,15,4)             -9.26395828E-02
    184     (3,15,5)              0.47148981    
    185     (3,15,6)              0.80617093    
    186     (3,15,7)             -4.42367659E-02
    187     (3,15,8)              0.20284309    
    188     (3,15,9)              0.49087545    
    189     (3,15,10)            -0.16789029    
    190     (3,15,11)             0.15238156    
    191     (3,15,12)             0.49159097    
    192     (3,15,13)            -4.38310642E-02
    193     (3,15,14)             0.32298200    
    194     (3,15,15)             0.57161159    
    195     (3,15,16)            -8.94648691E-03
    196     (3,15,17)             0.16033697    
    197     (3,15,18)            -0.45218160    
    198     (3,15,18)             0.30839863    
    199     (4,1,1)               0.81893977    
    200     (4,1,1)               0.12384830    
    201     (4,1,2)               0.38145036    
    202     (4,1,3)               0.65382467    
    203     (4,1,4)               5.57304632E-02
    204     (4,1,5)               0.41969884    
    205     (4,1,6)               0.78306890    
    206     (4,1,7)              -7.54788601E-02
    207     (4,1,8)               0.28730108    
    208     (4,1,9)               0.65609499    
    209     (4,1,10)              7.97206227E-03
    210     (4,1,11)              0.41520781    
    211     (4,1,12)              0.75783814    
    212     (4,1,13)              0.12296635    
    213     (4,1,14)              0.33630908    
    214     (4,1,15)              0.53518612    
    215     (4,1,16)             -1.12500663E-02
    216     (4,1,17)              0.19733648    
    217     (4,1,18)             -0.50548390    
    218     (4,1,18)              0.36499077    
    219     (4,2,1)               0.84234936    
    220     (4,2,18)             -0.47046153    
    221     (4,3,1)               0.87699313    
    222     (4,3,18)             -0.43425142    
    223     (4,4,1)               0.86652787    
    224     (4,4,18)             -0.50280566    
    225     (4,5,1)               0.90122968    
    226     (4,5,18)             -0.45806364    
    227     (4,6,1)               0.93075269    
    228     (4,6,18)             -0.39987007    
    229     (4,7,1)               0.92900295    
    230     (4,7,18)             -0.47308750    
    231     (4,8,1)               0.95127309    
    232     (4,8,18)             -0.48359107    
    233     (4,9,1)               0.96481115    
    234     (4,9,18)             -0.49723655    
    235     (4,10,1)              0.96813635    
    236     (4,10,18)            -0.39891322    
    237     (4,11,1)              0.97659998    
    238     (4,11,18)            -0.41041752    
    239     (4,12,1)              0.97721346    
    240     (4,12,18)            -0.42823984    
    241     (4,13,1)              0.99024203    
    242     (4,13,18)            -0.38078613    
    243     (4,14,1)              0.98751555    
    244     (4,14,18)            -0.40197212    
    245     (4,15,1)              0.98896150    
    246     (4,15,1)             -7.73252934E-02
    247     (4,15,2)              0.24211642    
    248     (4,15,3)              0.63452251    
    249     (4,15,4)             -5.93433097E-02
    250     (4,15,5)              0.41500515    
    251     (4,15,6)              0.71971987    
    252     (4,15,7)             -3.23383273E-02
    253     (4,15,8)              0.20393986    
    254     (4,15,9)              0.46731828    
    255     (4,15,10)            -0.13364845    
    256     (4,15,11)             0.15653874    
    257     (4,15,12)             0.46355890    
    258     (4,15,13)            -1.16240641E-02
    259     (4,15,14)             0.31500973    
    260     (4,15,15)             0.53999254    
    261     (4,15,16)             6.20558851E-03
    262     (4,15,17)             0.16407379    
    263     (4,15,18)            -0.42839637    
    264     (4,15,18)             0.29694919    
    265     (5,1,1)               0.84468430    
    266     (5,1,1)               0.18177349    
    267     (5,1,2)               0.39588641    
    268     (5,1,3)               0.62782486    
    269     (5,1,4)               0.14547473    
    270     (5,1,5)               0.44331051    
    271     (5,1,6)               0.74904170    
    272     (5,1,7)              -6.44177720E-03
    273     (5,1,8)               0.29954422    
    274     (5,1,9)               0.61061902    
    275     (5,1,10)              7.03027943E-02
    276     (5,1,11)              0.40712108    
    277     (5,1,12)              0.68522912    
    278     (5,1,13)              0.14915285    
    279     (5,1,14)              0.33957599    
    280     (5,1,15)              0.51047035    
    281     (5,1,16)              3.06789544E-02
    282     (5,1,17)              0.20734442    
    283     (5,1,18)             -0.54818241    
    284     (5,1,18)              0.34702690    
    285     (5,2,1)               0.86525178    
    286     (5,2,18)             -0.51711785    
    287     (5,3,1)               0.89541441    
    288     (5,3,18)             -0.48378327    
    289     (5,4,1)               0.89661856    
    290     (5,4,18)             -0.54744607    
    291     (5,5,1)               0.92691122    
    292     (5,5,18)             -0.50692740    
    293     (5,6,1)               0.95243635    
    294     (5,6,18)             -0.45605546    
    295     (5,7,1)               0.95915427    
    296     (5,7,18)             -0.53937053    
    297     (5,8,1)               0.97880687    
    298     (5,8,18)             -0.53959613    
    299     (5,9,1)               0.99079063    
    300     (5,9,18)             -0.54992078    
    301     (5,10,1)              0.99883778    
    302     (5,10,18)            -0.44274439    
    303     (5,11,1)              1.0064813     
    304     (5,11,18)            -0.45271515    
    305     (5,12,1)              1.0067804     
    306     (5,12,18)            -0.46889111    
    307     (5,13,1)              1.0184190     
    308     (5,13,18)            -0.42221992    
    309     (5,14,1)              1.0158932     
    310     (5,14,18)            -0.44142578    
    311     (5,15,1)              1.0160066     
    312     (5,15,1)             -1.64737829E-02
    313     (5,15,2)              0.24852244    
    314     (5,15,3)              0.57882872    
    315     (5,15,4)             -1.37682255E-02
    316     (5,15,5)              0.36721555    
    317     (5,15,6)              0.62537934    
    318     (5,15,7)             -3.30118500E-03
    319     (5,15,8)              0.20448781    
    320     (5,15,9)              0.42896853    
    321     (5,15,10)            -8.28172004E-02
    322     (5,15,11)             0.16223991    
    323     (5,15,12)             0.42126031    
    324     (5,15,13)             3.62114902E-02
    325     (5,15,14)             0.30815882    
    326     (5,15,15)             0.49768584    
    327     (5,15,16)             3.27841885E-02
    328     (5,15,17)             0.16985138    
    329     (5,15,18)            -0.46483489    
    330     (5,15,18)             0.28115866    
    331     (6,1,1)               0.82361183    
    332     (6,1,1)               0.26162549    
    333     (6,1,1)              -3.5847705     
    334     (6,1,2)               0.41628348    
    335     (6,1,2)              -0.96250996    
    336     (6,1,3)               0.58839499    
    337     (6,1,3)               1.9556790     
    338     (6,1,4)               0.25879486    
    339     (6,1,4)              -4.9986310     
    340     (6,1,5)               0.47383308    
    341     (6,1,5)              -1.3526106     
    342     (6,1,6)               0.69850189    
    343     (6,1,6)               2.4566986     
    344     (6,1,7)               9.15543629E-02
    345     (6,1,7)              -4.6203387     
    346     (6,1,8)               0.31673045    
    347     (6,1,8)              -0.80242796    
    348     (6,1,9)               0.54568327    
    349     (6,1,9)               3.0795180     
    350     (6,1,10)              0.16198852    
    351     (6,1,10)             -4.4468729     
    352     (6,1,11)              0.40675747    
    353     (6,1,11)             -0.29676116    
    354     (6,1,12)              0.60683795    
    355     (6,1,12)              3.0956475     
    356     (6,1,13)              0.20341574    
    357     (6,1,13)             -3.0037253     
    358     (6,1,14)              0.34842404    
    359     (6,1,14)             -0.54507748    
    360     (6,1,15)              0.47585109    
    361     (6,1,15)              1.6154763     
    362     (6,1,16)              9.08011827E-02
    363     (6,1,16)             -2.8580850     
    364     (6,1,17)              0.22133614    
    365     (6,1,17)             -0.64483579    
    366     (6,1,18)             -0.55900749    
    367     (6,1,18)              0.32267046    
    368     (6,1,18)              1.0733100     
    369     (6,2,1)               0.83836156    
    370     (6,2,1)              -2.9834362     
    371     (6,2,2)               0.13927542    
    372     (6,2,3)               3.4097229     
    373     (6,2,4)              -4.1480790     
    374     (6,2,5)              -0.10010099    
    375     (6,2,6)               4.0619545     
    376     (6,2,7)              -4.2307747     
    377     (6,2,8)              -7.52661218E-03
    378     (6,2,9)               4.3838507     
    379     (6,2,10)             -3.7725063     
    380     (6,2,11)              0.86797689    
    381     (6,2,12)              3.9611091     
    382     (6,2,13)             -2.7425706     
    383     (6,2,14)              0.46400535    
    384     (6,2,15)              2.7667579     
    385     (6,2,16)             -2.4313697     
    386     (6,2,17)              7.46169489E-03
    387     (6,2,18)             -0.53654673    
    388     (6,2,18)              1.9301710     
    389     (6,3,1)               0.85987720    
    390     (6,3,1)              -2.1062607     
    391     (6,3,2)               1.3307408     
    392     (6,3,3)               4.6956338     
    393     (6,3,4)              -2.6957404     
    394     (6,3,5)               1.2394469     
    395     (6,3,6)               5.3355885     
    396     (6,3,7)              -3.5400477     
    397     (6,3,8)               0.75619204    
    398     (6,3,9)               5.3557613     
    399     (6,3,10)             -2.8065620     
    400     (6,3,11)              1.3482887     
    401     (6,3,12)              4.4995952     
    402     (6,3,13)             -2.1725342     
    403     (6,3,14)              1.3607446     
    404     (6,3,15)              3.7277302     
    405     (6,3,16)             -1.5835878     
    406     (6,3,17)              0.92469659    
    407     (6,3,18)             -0.51142782    
    408     (6,3,18)              2.8884388     
    409     (6,4,1)               0.87801744    
    410     (6,4,1)              -4.2388366     
    411     (6,4,2)              -0.65433089    
    412     (6,4,3)               2.7913976     
    413     (6,4,4)              -5.0269990     
    414     (6,4,5)              -1.1083789     
    415     (6,4,6)               2.7959030     
    416     (6,4,7)              -5.2327866     
    417     (6,4,8)              -0.99865301    
    418     (6,4,9)               3.7203863     
    419     (6,4,10)             -4.0056903     
    420     (6,4,11)             -0.28536438    
    421     (6,4,12)              3.0599295     
    422     (6,4,13)             -4.0000056     
    423     (6,4,14)             -0.30783760    
    424     (6,4,15)              2.1339290     
    425     (6,4,16)             -3.6257685     
    426     (6,4,17)             -1.0314088     
    427     (6,4,18)             -0.55971351    
    428     (6,4,18)              1.0388650     
    429     (6,5,1)               0.89965225    
    430     (6,5,1)              -3.3568027     
    431     (6,5,2)               0.35271103    
    432     (6,5,3)               3.8534602     
    433     (6,5,4)              -3.8403224     
    434     (6,5,5)               1.32474791E-02
    435     (6,5,6)               3.8777608     
    436     (6,5,7)              -4.4373251     
    437     (6,5,8)              -0.43902067    
    438     (6,5,9)               4.3464498     
    439     (6,5,10)             -3.4155815     
    440     (6,5,11)              0.21218936    
    441     (6,5,12)              3.6806300     
    442     (6,5,13)             -3.2040076     
    443     (6,5,14)              0.55137340    
    444     (6,5,15)              3.0422643     
    445     (6,5,16)             -2.5540127     
    446     (6,5,17)              0.14642304    
    447     (6,5,18)             -0.52964220    
    448     (6,5,18)              2.1860634     
    449     (6,6,1)               0.91769641    
    450     (6,6,1)              -2.6211569     
    451     (6,6,2)               1.1969144     
    452     (6,6,3)               4.7639130     
    453     (6,6,4)              -2.7743727     
    454     (6,6,5)               1.0422001     
    455     (6,6,6)               4.9934981     
    456     (6,6,7)              -3.2609575     
    457     (6,6,8)               0.61457003    
    458     (6,6,9)               4.9627116     
    459     (6,6,10)             -2.9520198     
    460     (6,6,11)              0.71377637    
    461     (6,6,12)              4.2992253     
    462     (6,6,13)             -2.3495676     
    463     (6,6,14)              1.3435658     
    464     (6,6,15)              3.9303990     
    465     (6,6,16)             -1.3325658     
    466     (6,6,17)              1.5896143     
    467     (6,6,18)             -0.49286688    
    468     (6,6,18)              3.5890141     
    469     (6,7,1)               0.93633393    
    470     (6,7,1)              -4.1701196     
    471     (6,7,2)              -0.26914068    
    472     (6,7,3)               3.4436225     
    473     (6,7,4)              -5.1151893     
    474     (6,7,5)              -1.2085588     
    475     (6,7,6)               2.7997696     
    476     (6,7,7)              -4.9634291     
    477     (6,7,8)              -1.1291104     
    478     (6,7,9)               2.8910568     
    479     (6,7,10)             -4.0306547     
    480     (6,7,11)             -0.36874613    
    481     (6,7,12)              3.3742317     
    482     (6,7,13)             -3.6126919     
    483     (6,7,14)             -0.23643268    
    484     (6,7,15)              2.5932312     
    485     (6,7,16)             -2.9461794     
    486     (6,7,17)              0.26726257    
    487     (6,7,18)             -0.57122217    
    488     (6,7,18)              2.3533030     
    489     (6,8,1)               0.95051507    
    490     (6,8,1)              -3.5919662     
    491     (6,8,2)               0.36495022    
    492     (6,8,3)               4.2944784     
    493     (6,8,4)              -4.0462874     
    494     (6,8,5)               0.13064591    
    495     (6,8,6)               4.0608762     
    496     (6,8,7)              -3.8868901     
    497     (6,8,8)              -4.17967639E-02
    498     (6,8,9)               4.1077702     
    499     (6,8,10)             -3.5597729     
    500     (6,8,11)              9.89256253E-02
    501     (6,8,12)              3.9628111     
    502     (6,8,13)             -2.6954836     
    503     (6,8,14)              0.30020107    
    504     (6,8,15)              3.3443295     
    505     (6,8,16)             -1.7352067     
    506     (6,8,17)              0.58864968    
    507     (6,8,18)             -0.56705027    
    508     (6,8,18)              2.5124579     
    509     (6,9,1)               0.95911916    
    510     (6,9,1)              -3.2411846     
    511     (6,9,2)               0.64175013    
    512     (6,9,3)               4.8272084     
    513     (6,9,4)              -2.8213258     
    514     (6,9,5)               1.6184109     
    515     (6,9,6)               5.3228359     
    516     (6,9,7)              -2.9455454     
    517     (6,9,8)               0.94318778    
    518     (6,9,9)               5.3449153     
    519     (6,9,10)             -3.2549740     
    520     (6,9,11)              0.40983209    
    521     (6,9,12)              4.3444468     
    522     (6,9,13)             -2.2015877     
    523     (6,9,14)              0.64960354    
    524     (6,9,15)              3.7151227     
    525     (6,9,16)             -1.4933001     
    526     (6,9,17)              0.51794087    
    527     (6,9,18)             -0.57366499    
    528     (6,9,18)              2.2601115     
    529     (6,10,1)              0.97334298    
    530     (6,10,1)             -4.0624565     
    531     (6,10,2)             -0.17338461    
    532     (6,10,3)              4.3099502     
    533     (6,10,4)             -4.2324708     
    534     (6,10,5)             -8.58613335E-02
    535     (6,10,6)              3.3234553     
    536     (6,10,7)             -4.3608245     
    537     (6,10,8)             -0.42642120    
    538     (6,10,9)              3.8690630     
    539     (6,10,10)            -3.7085264     
    540     (6,10,11)            -0.12471488    
    541     (6,10,12)             3.8437323     
    542     (6,10,13)            -2.7317235     
    543     (6,10,14)             5.60581132E-02
    544     (6,10,15)             3.0089991     
    545     (6,10,16)            -1.3808383     
    546     (6,10,17)             0.66314668    
    547     (6,10,18)            -0.46409775    
    548     (6,10,18)             2.0525521     
    549     (6,11,1)              0.97898729    
    550     (6,11,1)             -3.8323425     
    551     (6,11,2)              9.24084234E-02
    552     (6,11,3)              4.7678220     
    553     (6,11,4)             -3.1899913     
    554     (6,11,5)              0.41022066    
    555     (6,11,6)              3.8686141     
    556     (6,11,7)             -3.7197307     
    557     (6,11,8)              0.27436066    
    558     (6,11,9)              4.2659229     
    559     (6,11,10)            -3.5265927     
    560     (6,11,11)             3.92130002E-02
    561     (6,11,12)             4.0301556     
    562     (6,11,13)            -2.4682311     
    563     (6,11,14)             0.28229980    
    564     (6,11,15)             3.1340287     
    565     (6,11,16)            -1.6012381     
    566     (6,11,17)             0.42326172    
    567     (6,11,18)            -0.47114720    
    568     (6,11,18)             1.7836209     
    569     (6,12,1)              0.97902361    
    570     (6,12,1)             -3.8308618     
    571     (6,12,2)              0.11025845    
    572     (6,12,3)              4.8876143     
    573     (6,12,4)             -2.7476689     
    574     (6,12,5)              0.70384644    
    575     (6,12,6)              4.2047698     
    576     (6,12,7)             -3.3245332     
    577     (6,12,8)              0.76181890    
    578     (6,12,9)              4.1751273     
    579     (6,12,10)            -3.6144204     
    580     (6,12,11)            -3.87033019E-02
    581     (6,12,12)             3.9588973     
    582     (6,12,13)            -2.4611104     
    583     (6,12,14)             0.33939100    
    584     (6,12,15)             3.1068027     
    585     (6,12,16)            -1.9145703     
    586     (6,12,17)            -0.14780403    
    587     (6,12,18)            -0.48322103    
    588     (6,12,18)             1.3230132     
    589     (6,13,1)              0.98799552    
    590     (6,13,1)             -3.6012647     
    591     (6,13,2)              0.32112099    
    592     (6,13,3)              5.1516992     
    593     (6,13,4)             -3.2334072     
    594     (6,13,5)              0.39469919    
    595     (6,13,6)              3.9010365     
    596     (6,13,7)             -3.1485215     
    597     (6,13,8)              0.69139538    
    598     (6,13,9)              3.7356333     
    599     (6,13,10)            -3.2464887     
    600     (6,13,11)             0.28375922    
    601     (6,13,12)             4.2168054     
    602     (6,13,13)            -2.1300226     
    603     (6,13,14)             1.0172715     
    604     (6,13,15)             3.6731292     
    605     (6,13,16)            -0.91319902    
    606     (6,13,17)             0.68620333    
    607     (6,13,18)            -0.44317761    
    608     (6,13,18)             2.1331389     
    609     (6,14,1)              0.98610885    
    610     (6,14,1)             -3.6781828     
    611     (6,14,2)              7.90288831E-02
    612     (6,14,3)              4.7642068     
    613     (6,14,4)             -3.3667338     
    614     (6,14,5)              0.77447725    
    615     (6,14,6)              4.2477158     
    616     (6,14,7)             -2.7346748     
    617     (6,14,8)              0.35214391    
    618     (6,14,9)              3.3944445     
    619     (6,14,10)            -3.4130211     
    620     (6,14,11)             1.15750124E-02
    621     (6,14,12)             3.7205238     
    622     (6,14,13)            -2.8891942     
    623     (6,14,14)             1.0833376     
    624     (6,14,15)             3.6872188     
    625     (6,14,16)            -1.5093881     
    626     (6,14,17)             0.12219210    
    627     (6,14,18)            -0.45742791    
    628     (6,14,18)             1.5895005     
    629     (6,15,1)              0.98539797    
    630     (6,15,1)              6.69211193E-02
    631     (6,15,1)             -3.7071648     
    632     (6,15,2)              0.25797011    
    633     (6,15,2)             -0.46788662    
    634     (6,15,3)              0.50072401    
    635     (6,15,3)              3.6480596     
    636     (6,15,4)              6.13239382E-02
    637     (6,15,4)             -3.8883400     
    638     (6,15,5)              0.33380058    
    639     (6,15,5)              0.73156153    
    640     (6,15,6)              0.52430194    
    641     (6,15,6)              3.9615542     
    642     (6,15,7)              5.04221434E-02
    643     (6,15,7)             -2.9059696     
    644     (6,15,8)              0.20771339    
    645     (6,15,8)             -0.23906149    
    646     (6,15,9)              0.37434285    
    647     (6,15,9)              2.5861780     
    648     (6,15,10)            -1.00636506E-02
    649     (6,15,10)            -3.4528307     
    650     (6,15,11)             0.17044939    
    651     (6,15,11)            -0.39219221    
    652     (6,15,12)             0.36112086    
    653     (6,15,12)             2.8406849     
    654     (6,15,13)             0.10767984    
    655     (6,15,13)            -3.5097739     
    656     (6,15,14)             0.30612797    
    657     (6,15,14)            -0.14504212    
    658     (6,15,15)             0.44530956    
    659     (6,15,15)             2.2148125     
    660     (6,15,16)             7.53685158E-02
    661     (6,15,16)            -2.1822875     
    662     (6,15,17)             0.17864392    
    663     (6,15,17)            -0.43123023    
    664     (6,15,18)            -0.47434403    
    665     (6,15,18)             0.25976308    
    666     (6,15,18)             0.94416326    
 -----------------------------------------------


