                                   MODFLOW 6
                U.S. GEOLOGICAL SURVEY MODULAR HYDROLOGIC MODEL
                            VERSION 6.6.1 02/10/2025

   MODFLOW 6 compiled Feb 14 2025 13:40:10 with Intel(R) Fortran Intel(R) 64
   Compiler Classic for applications running on Intel(R) 64, Version 2021.7.0
                             Build 20220726_000000

This software has been approved for release by the U.S. Geological 
Survey (USGS). Although the software has been subjected to rigorous 
review, the USGS reserves the right to update the software as needed 
pursuant to further analysis and review. No warranty, expressed or 
implied, is made by the USGS or the U.S. Government as to the 
functionality of the software and related material nor shall the 
fact of release constitute any such warranty. Furthermore, the 
software is released on condition that neither the USGS nor the U.S. 
Government shall be held liable for any damages resulting from its 
authorized or unauthorized use. Also refer to the USGS Water 
Resources Software User Rights Notice for complete use, copyright, 
and distribution information.


As a work of the United States Government, this USGS product is 
in the public domain within the United States. You can copy, 
modify, distribute, and perform the work, even for commercial 
purposes, all without asking permission. Additionally, USGS 
waives copyright and related rights in the work worldwide 
through CC0 1.0 Universal Public Domain Dedication 
(https://creativecommons.org/publicdomain/zero/1.0/).

The following GNU Lesser General Public License (LGPL) libraries
are used in this USGS product:

    SPARSKIT version 2.0
      ilut, luson, and qsplit 
      (https://www-users.cse.umn.edu/~saad/software/SPARSKIT/)

    RCM - Reverse Cuthill McKee Ordering
      (https://people.math.sc.edu/Burkardt/f_src/rcm/rcm.html)

    BLAS - Basic Linear Algebra Subprograms Level 1
      (https://people.math.sc.edu/Burkardt/f_src/blas1_d/blas1_d.html)

    SPARSEKIT - Sparse Matrix Utility Package
      amux, dperm, dvperm, rperm, and cperm
      (https://people.sc.fsu.edu/~jburkardt/f77_src/sparsekit/sparsekit.html)

The following BSD-3 License libraries are used in this USGS product:

    Modern Fortran DAG Library
      Copyright (c) 2018, Jacob Williams
      All rights reserved.
      (https://github.com/jacobwilliams/daglib)

MODFLOW 6 compiler options: /O2 /heap-arrays:0 /fpe:0 /traceback /nologo /fpp
/c /module:win64\mod_mf6\ /object:win64\obj_mf6\

System command used to initiate simulation:
C:\Users\gross.DESKTOP-AIRQM2M\anaconda3\Scripts\mf6.exe

MODFLOW was compiled using uniform precision.

Real Variables
  KIND: 8
  TINY (smallest non-zero value):    2.225074-308
  HUGE (largest value):    1.797693+308
  PRECISION: 15
  SIZE IN BITS: 64

Integer Variables
  KIND: 4
  HUGE (largest value): 2147483647
  SIZE IN BITS: 32

Long Integer Variables
  KIND: 8
  HUGE (largest value): 9223372036854775807
  SIZE IN BITS: 64

Logical Variables
  KIND: 4
  SIZE IN BITS: 32
 

 OPENED mfsim.nam
 FILE TYPE:NAM6               UNIT 1001   STATUS:OLD                 
 FORMAT:FORMATTED              ACCESS:SEQUENTIAL          
 ACTION:READ                

 # File generated by Flopy version 3.9.1 on 05/26/2025 at 15:48:19.

 OPENED ex-gwf-lgr.tdis
 FILE TYPE:TDIS6              UNIT 1002   STATUS:OLD                 
 FORMAT:FORMATTED              ACCESS:SEQUENTIAL          
 ACTION:READ                

 # File generated by Flopy version 3.9.1 on 05/26/2025 at 15:48:19.

 OPENED gwf-lgr-parent.nam
 FILE TYPE:GWF6               UNIT 1003   STATUS:OLD                 
 FORMAT:FORMATTED              ACCESS:SEQUENTIAL          
 ACTION:READ                

 # File generated by Flopy version 3.9.1 on 05/26/2025 at 15:48:19.

 OPENED gwf-lgr-parent.dis
 FILE TYPE:DIS6               UNIT 1004   STATUS:OLD                 
 FORMAT:FORMATTED              ACCESS:SEQUENTIAL          
 ACTION:READ                

 # File generated by Flopy version 3.9.1 on 05/26/2025 at 15:48:19.

 OPENED gwf-lgr-parent.npf
 FILE TYPE:NPF6               UNIT 1005   STATUS:OLD                 
 FORMAT:FORMATTED              ACCESS:SEQUENTIAL          
 ACTION:READ                

 # File generated by Flopy version 3.9.1 on 05/26/2025 at 15:48:19.

 OPENED gwf-lgr-parent.ic
 FILE TYPE:IC6                UNIT 1006   STATUS:OLD                 
 FORMAT:FORMATTED              ACCESS:SEQUENTIAL          
 ACTION:READ                

 # File generated by Flopy version 3.9.1 on 05/26/2025 at 15:48:19.

 OPENED gwf-lgr-parent.oc
 FILE TYPE:OC6       UNIT 1007   STATUS:OLD                 
 FORMAT:FORMATTED              ACCESS:SEQUENTIAL          
 ACTION:READ                


 OPENED gwf-lgr-parent.chd1.chd
 FILE TYPE:CHD6               UNIT 1008   STATUS:OLD                 
 FORMAT:FORMATTED              ACCESS:SEQUENTIAL          
 ACTION:READ                

 # File generated by Flopy version 3.9.1 on 05/26/2025 at 15:48:19.

 OPENED gwf-lgr-parent.chd2.chd
 FILE TYPE:CHD6               UNIT 1009   STATUS:OLD                 
 FORMAT:FORMATTED              ACCESS:SEQUENTIAL          
 ACTION:READ                

 # File generated by Flopy version 3.9.1 on 05/26/2025 at 15:48:19.

 OPENED gwf-lgr-parent.sfr
 FILE TYPE:SFR6      UNIT 1010   STATUS:OLD                 
 FORMAT:FORMATTED              ACCESS:SEQUENTIAL          
 ACTION:READ                


 OPENED gwf-lgr-child.nam
 FILE TYPE:GWF6               UNIT 1011   STATUS:OLD                 
 FORMAT:FORMATTED              ACCESS:SEQUENTIAL          
 ACTION:READ                

 # File generated by Flopy version 3.9.1 on 05/26/2025 at 15:48:19.

 OPENED gwf-lgr-child.dis
 FILE TYPE:DIS6               UNIT 1012   STATUS:OLD                 
 FORMAT:FORMATTED              ACCESS:SEQUENTIAL          
 ACTION:READ                

 # File generated by Flopy version 3.9.1 on 05/26/2025 at 15:48:19.

 OPENED gwf-lgr-child.npf
 FILE TYPE:NPF6               UNIT 1013   STATUS:OLD                 
 FORMAT:FORMATTED              ACCESS:SEQUENTIAL          
 ACTION:READ                

 # File generated by Flopy version 3.9.1 on 05/26/2025 at 15:48:19.

 OPENED gwf-lgr-child.ic
 FILE TYPE:IC6                UNIT 1014   STATUS:OLD                 
 FORMAT:FORMATTED              ACCESS:SEQUENTIAL          
 ACTION:READ                

 # File generated by Flopy version 3.9.1 on 05/26/2025 at 15:48:19.

 OPENED gwf-lgr-child.oc
 FILE TYPE:OC6       UNIT 1015   STATUS:OLD                 
 FORMAT:FORMATTED              ACCESS:SEQUENTIAL          
 ACTION:READ                


 OPENED gwf-lgr-child.sfr
 FILE TYPE:SFR6      UNIT 1016   STATUS:OLD                 
 FORMAT:FORMATTED              ACCESS:SEQUENTIAL          
 ACTION:READ                


 OPENED lgr.exg
 FILE TYPE:GWF6-GWF6          UNIT 1017   STATUS:OLD                 
 FORMAT:FORMATTED              ACCESS:SEQUENTIAL          
 ACTION:READ                

 # File generated by Flopy version 3.9.1 on 05/26/2025 at 15:48:19.

 READING SIMULATION OPTIONS
    SIMULATION WILL CONTINUE EVEN IF THERE IS NONCONVERGENCE.
    MAXIMUM NUMBER OF ERRORS THAT WILL BE STORED IS 1000
 END OF SIMULATION OPTIONS

 READING SIMULATION TIMING

 TDIS -- TEMPORAL DISCRETIZATION PACKAGE,
 VERSION 1 : 11/13/2014 - INPUT READ FROM MEMPATH: __INPUT__/SIM/TDIS                                
 PROCESSING TDIS OPTIONS
    SIMULATION TIME UNIT IS DAYS
 END OF TDIS OPTIONS
 PROCESSING TDIS DIMENSIONS
    1 STRESS PERIOD(S) IN SIMULATION
 END OF TDIS DIMENSIONS
 PROCESSING TDIS PERIODDATA


 STRESS PERIOD     LENGTH       TIME STEPS     MULTIPLIER FOR DELT
 ----------------------------------------------------------------------------
        1         1.000000          1                    1.000
 END OF TDIS PERIODDATA
 END OF SIMULATION TIMING

 READING SIMULATION MODELS
    GWF6 model 1 will be created
    GWF6 model 2 will be created
 END OF SIMULATION MODELS

 READING SIMULATION EXCHANGES
    GWF6-GWF6 exchange 1 will be created to connect model 1 with model 2
 END OF SIMULATION EXCHANGES

 READING SOLUTIONGROUP

 Creating solution: SLN_1           

 OPENED gwf-lgr-parent.ims
 FILE TYPE:IMS   UNIT 1020   STATUS:OLD                 
 FORMAT:FORMATTED              ACCESS:SEQUENTIAL          
 ACTION:READ                

 END OF SOLUTIONGROUP

 Creating exchange: GWF-GWF_1       
 PROCESSING GWF-GWF EXCHANGE OPTIONS
    THE LIST OF EXCHANGES WILL BE PRINTED.
    EXCHANGE FLOWS WILL BE PRINTED TO LIST FILES.

 OPENED lgr.mvr
 FILE TYPE:MVR   UNIT 1023   STATUS:OLD                 
 FORMAT:FORMATTED              ACCESS:SEQUENTIAL          
 ACTION:READ                

    WATER MOVER INFORMATION WILL BE READ FROM 
    lgr.mvr
 END OF GWF-GWF EXCHANGE OPTIONS
 PROCESSING EXCHANGE DIMENSIONS
    NEXG = 666
 END OF EXCHANGE DIMENSIONS
 PROCESSING EXCHANGEDATA
     NODEM1    NODEM2       IHC             CL1             CL2            HWVA
     (1,7,2) (1,1,1)         2     51.4700         17.1567         22.8756    
     (1,6,3) (1,1,1)         2     34.3133         11.4378         34.3133    
     (1,6,3) (1,1,2)         2     34.3133         11.4378         34.3133    
     (1,6,3) (1,1,3)         2     34.3133         11.4378         34.3133    
     (1,6,4) (1,1,4)         2     34.3133         11.4378         34.3133    
     (1,6,4) (1,1,5)         2     34.3133         11.4378         34.3133    
     (1,6,4) (1,1,6)         2     34.3133         11.4378         34.3133    
     (1,6,5) (1,1,7)         2     34.3133         11.4378         34.3133    
     (1,6,5) (1,1,8)         2     34.3133         11.4378         34.3133    
     (1,6,5) (1,1,9)         2     34.3133         11.4378         34.3133    
     (1,6,6) (1,1,10)         2     34.3133         11.4378         34.3133    
     (1,6,6) (1,1,11)         2     34.3133         11.4378         34.3133    
     (1,6,6) (1,1,12)         2     34.3133         11.4378         34.3133    
     (1,6,7) (1,1,13)         2     34.3133         11.4378         34.3133    
     (1,6,7) (1,1,14)         2     34.3133         11.4378         34.3133    
     (1,6,7) (1,1,15)         2     34.3133         11.4378         34.3133    
     (1,6,8) (1,1,16)         2     34.3133         11.4378         34.3133    
     (1,6,8) (1,1,17)         2     34.3133         11.4378         34.3133    
     (1,7,9) (1,1,18)         2     51.4700         17.1567         22.8756    
     (1,6,8) (1,1,18)         2     34.3133         11.4378         34.3133    
     (1,7,2) (1,2,1)         2     51.4700         17.1567         22.8756    
     (1,7,9) (1,2,18)         2     51.4700         17.1567         22.8756    
     (1,7,2) (1,3,1)         2     51.4700         17.1567         22.8756    
     (1,7,9) (1,3,18)         2     51.4700         17.1567         22.8756    
     (1,8,2) (1,4,1)         2     51.4700         17.1567         22.8756    
     (1,8,9) (1,4,18)         2     51.4700         17.1567         22.8756    
     (1,8,2) (1,5,1)         2     51.4700         17.1567         22.8756    
     (1,8,9) (1,5,18)         2     51.4700         17.1567         22.8756    
     (1,8,2) (1,6,1)         2     51.4700         17.1567         22.8756    
     (1,8,9) (1,6,18)         2     51.4700         17.1567         22.8756    
     (1,9,2) (1,7,1)         2     51.4700         17.1567         22.8756    
     (1,9,9) (1,7,18)         2     51.4700         17.1567         22.8756    
     (1,9,2) (1,8,1)         2     51.4700         17.1567         22.8756    
     (1,9,9) (1,8,18)         2     51.4700         17.1567         22.8756    
     (1,9,2) (1,9,1)         2     51.4700         17.1567         22.8756    
     (1,9,9) (1,9,18)         2     51.4700         17.1567         22.8756    
     (1,10,2) (1,10,1)         2     51.4700         17.1567         22.8756    
     (1,10,9) (1,10,18)         2     51.4700         17.1567         22.8756    
     (1,10,2) (1,11,1)         2     51.4700         17.1567         22.8756    
     (1,10,9) (1,11,18)         2     51.4700         17.1567         22.8756    
     (1,10,2) (1,12,1)         2     51.4700         17.1567         22.8756    
     (1,10,9) (1,12,18)         2     51.4700         17.1567         22.8756    
     (1,11,2) (1,13,1)         2     51.4700         17.1567         22.8756    
     (1,11,9) (1,13,18)         2     51.4700         17.1567         22.8756    
     (1,11,2) (1,14,1)         2     51.4700         17.1567         22.8756    
     (1,11,9) (1,14,18)         2     51.4700         17.1567         22.8756    
     (1,11,2) (1,15,1)         2     51.4700         17.1567         22.8756    
     (1,12,3) (1,15,1)         2     34.3133         11.4378         34.3133    
     (1,12,3) (1,15,2)         2     34.3133         11.4378         34.3133    
     (1,12,3) (1,15,3)         2     34.3133         11.4378         34.3133    
     (1,12,4) (1,15,4)         2     34.3133         11.4378         34.3133    
     (1,12,4) (1,15,5)         2     34.3133         11.4378         34.3133    
     (1,12,4) (1,15,6)         2     34.3133         11.4378         34.3133    
     (1,12,5) (1,15,7)         2     34.3133         11.4378         34.3133    
     (1,12,5) (1,15,8)         2     34.3133         11.4378         34.3133    
     (1,12,5) (1,15,9)         2     34.3133         11.4378         34.3133    
     (1,12,6) (1,15,10)         2     34.3133         11.4378         34.3133    
     (1,12,6) (1,15,11)         2     34.3133         11.4378         34.3133    
     (1,12,6) (1,15,12)         2     34.3133         11.4378         34.3133    
     (1,12,7) (1,15,13)         2     34.3133         11.4378         34.3133    
     (1,12,7) (1,15,14)         2     34.3133         11.4378         34.3133    
     (1,12,7) (1,15,15)         2     34.3133         11.4378         34.3133    
     (1,12,8) (1,15,16)         2     34.3133         11.4378         34.3133    
     (1,12,8) (1,15,17)         2     34.3133         11.4378         34.3133    
     (1,11,9) (1,15,18)         2     51.4700         17.1567         22.8756    
     (1,12,8) (1,15,18)         2     34.3133         11.4378         34.3133    
     (1,7,2) (2,1,1)         2     51.4700         17.1567         22.8756    
     (1,6,3) (2,1,1)         2     34.3133         11.4378         34.3133    
     (1,6,3) (2,1,2)         2     34.3133         11.4378         34.3133    
     (1,6,3) (2,1,3)         2     34.3133         11.4378         34.3133    
     (1,6,4) (2,1,4)         2     34.3133         11.4378         34.3133    
     (1,6,4) (2,1,5)         2     34.3133         11.4378         34.3133    
     (1,6,4) (2,1,6)         2     34.3133         11.4378         34.3133    
     (1,6,5) (2,1,7)         2     34.3133         11.4378         34.3133    
     (1,6,5) (2,1,8)         2     34.3133         11.4378         34.3133    
     (1,6,5) (2,1,9)         2     34.3133         11.4378         34.3133    
     (1,6,6) (2,1,10)         2     34.3133         11.4378         34.3133    
     (1,6,6) (2,1,11)         2     34.3133         11.4378         34.3133    
     (1,6,6) (2,1,12)         2     34.3133         11.4378         34.3133    
     (1,6,7) (2,1,13)         2     34.3133         11.4378         34.3133    
     (1,6,7) (2,1,14)         2     34.3133         11.4378         34.3133    
     (1,6,7) (2,1,15)         2     34.3133         11.4378         34.3133    
     (1,6,8) (2,1,16)         2     34.3133         11.4378         34.3133    
     (1,6,8) (2,1,17)         2     34.3133         11.4378         34.3133    
     (1,7,9) (2,1,18)         2     51.4700         17.1567         22.8756    
     (1,6,8) (2,1,18)         2     34.3133         11.4378         34.3133    
     (1,7,2) (2,2,1)         2     51.4700         17.1567         22.8756    
     (1,7,9) (2,2,18)         2     51.4700         17.1567         22.8756    
     (1,7,2) (2,3,1)         2     51.4700         17.1567         22.8756    
     (1,7,9) (2,3,18)         2     51.4700         17.1567         22.8756    
     (1,8,2) (2,4,1)         2     51.4700         17.1567         22.8756    
     (1,8,9) (2,4,18)         2     51.4700         17.1567         22.8756    
     (1,8,2) (2,5,1)         2     51.4700         17.1567         22.8756    
     (1,8,9) (2,5,18)         2     51.4700         17.1567         22.8756    
     (1,8,2) (2,6,1)         2     51.4700         17.1567         22.8756    
     (1,8,9) (2,6,18)         2     51.4700         17.1567         22.8756    
     (1,9,2) (2,7,1)         2     51.4700         17.1567         22.8756    
     (1,9,9) (2,7,18)         2     51.4700         17.1567         22.8756    
     (1,9,2) (2,8,1)         2     51.4700         17.1567         22.8756    
     (1,9,9) (2,8,18)         2     51.4700         17.1567         22.8756    
     (1,9,2) (2,9,1)         2     51.4700         17.1567         22.8756    
     (1,9,9) (2,9,18)         2     51.4700         17.1567         22.8756    
     (1,10,2) (2,10,1)         2     51.4700         17.1567         22.8756    
     (1,10,9) (2,10,18)         2     51.4700         17.1567         22.8756    
     (1,10,2) (2,11,1)         2     51.4700         17.1567         22.8756    
     (1,10,9) (2,11,18)         2     51.4700         17.1567         22.8756    
     (1,10,2) (2,12,1)         2     51.4700         17.1567         22.8756    
     (1,10,9) (2,12,18)         2     51.4700         17.1567         22.8756    
     (1,11,2) (2,13,1)         2     51.4700         17.1567         22.8756    
     (1,11,9) (2,13,18)         2     51.4700         17.1567         22.8756    
     (1,11,2) (2,14,1)         2     51.4700         17.1567         22.8756    
     (1,11,9) (2,14,18)         2     51.4700         17.1567         22.8756    
     (1,11,2) (2,15,1)         2     51.4700         17.1567         22.8756    
     (1,12,3) (2,15,1)         2     34.3133         11.4378         34.3133    
     (1,12,3) (2,15,2)         2     34.3133         11.4378         34.3133    
     (1,12,3) (2,15,3)         2     34.3133         11.4378         34.3133    
     (1,12,4) (2,15,4)         2     34.3133         11.4378         34.3133    
     (1,12,4) (2,15,5)         2     34.3133         11.4378         34.3133    
     (1,12,4) (2,15,6)         2     34.3133         11.4378         34.3133    
     (1,12,5) (2,15,7)         2     34.3133         11.4378         34.3133    
     (1,12,5) (2,15,8)         2     34.3133         11.4378         34.3133    
     (1,12,5) (2,15,9)         2     34.3133         11.4378         34.3133    
     (1,12,6) (2,15,10)         2     34.3133         11.4378         34.3133    
     (1,12,6) (2,15,11)         2     34.3133         11.4378         34.3133    
     (1,12,6) (2,15,12)         2     34.3133         11.4378         34.3133    
     (1,12,7) (2,15,13)         2     34.3133         11.4378         34.3133    
     (1,12,7) (2,15,14)         2     34.3133         11.4378         34.3133    
     (1,12,7) (2,15,15)         2     34.3133         11.4378         34.3133    
     (1,12,8) (2,15,16)         2     34.3133         11.4378         34.3133    
     (1,12,8) (2,15,17)         2     34.3133         11.4378         34.3133    
     (1,11,9) (2,15,18)         2     51.4700         17.1567         22.8756    
     (1,12,8) (2,15,18)         2     34.3133         11.4378         34.3133    
     (1,7,2) (3,1,1)         2     51.4700         17.1567         22.8756    
     (1,6,3) (3,1,1)         2     34.3133         11.4378         34.3133    
     (1,6,3) (3,1,2)         2     34.3133         11.4378         34.3133    
     (1,6,3) (3,1,3)         2     34.3133         11.4378         34.3133    
     (1,6,4) (3,1,4)         2     34.3133         11.4378         34.3133    
     (1,6,4) (3,1,5)         2     34.3133         11.4378         34.3133    
     (1,6,4) (3,1,6)         2     34.3133         11.4378         34.3133    
     (1,6,5) (3,1,7)         2     34.3133         11.4378         34.3133    
     (1,6,5) (3,1,8)         2     34.3133         11.4378         34.3133    
     (1,6,5) (3,1,9)         2     34.3133         11.4378         34.3133    
     (1,6,6) (3,1,10)         2     34.3133         11.4378         34.3133    
     (1,6,6) (3,1,11)         2     34.3133         11.4378         34.3133    
     (1,6,6) (3,1,12)         2     34.3133         11.4378         34.3133    
     (1,6,7) (3,1,13)         2     34.3133         11.4378         34.3133    
     (1,6,7) (3,1,14)         2     34.3133         11.4378         34.3133    
     (1,6,7) (3,1,15)         2     34.3133         11.4378         34.3133    
     (1,6,8) (3,1,16)         2     34.3133         11.4378         34.3133    
     (1,6,8) (3,1,17)         2     34.3133         11.4378         34.3133    
     (1,7,9) (3,1,18)         2     51.4700         17.1567         22.8756    
     (1,6,8) (3,1,18)         2     34.3133         11.4378         34.3133    
     (1,7,2) (3,2,1)         2     51.4700         17.1567         22.8756    
     (1,7,9) (3,2,18)         2     51.4700         17.1567         22.8756    
     (1,7,2) (3,3,1)         2     51.4700         17.1567         22.8756    
     (1,7,9) (3,3,18)         2     51.4700         17.1567         22.8756    
     (1,8,2) (3,4,1)         2     51.4700         17.1567         22.8756    
     (1,8,9) (3,4,18)         2     51.4700         17.1567         22.8756    
     (1,8,2) (3,5,1)         2     51.4700         17.1567         22.8756    
     (1,8,9) (3,5,18)         2     51.4700         17.1567         22.8756    
     (1,8,2) (3,6,1)         2     51.4700         17.1567         22.8756    
     (1,8,9) (3,6,18)         2     51.4700         17.1567         22.8756    
     (1,9,2) (3,7,1)         2     51.4700         17.1567         22.8756    
     (1,9,9) (3,7,18)         2     51.4700         17.1567         22.8756    
     (1,9,2) (3,8,1)         2     51.4700         17.1567         22.8756    
     (1,9,9) (3,8,18)         2     51.4700         17.1567         22.8756    
     (1,9,2) (3,9,1)         2     51.4700         17.1567         22.8756    
     (1,9,9) (3,9,18)         2     51.4700         17.1567         22.8756    
     (1,10,2) (3,10,1)         2     51.4700         17.1567         22.8756    
     (1,10,9) (3,10,18)         2     51.4700         17.1567         22.8756    
     (1,10,2) (3,11,1)         2     51.4700         17.1567         22.8756    
     (1,10,9) (3,11,18)         2     51.4700         17.1567         22.8756    
     (1,10,2) (3,12,1)         2     51.4700         17.1567         22.8756    
     (1,10,9) (3,12,18)         2     51.4700         17.1567         22.8756    
     (1,11,2) (3,13,1)         2     51.4700         17.1567         22.8756    
     (1,11,9) (3,13,18)         2     51.4700         17.1567         22.8756    
     (1,11,2) (3,14,1)         2     51.4700         17.1567         22.8756    
     (1,11,9) (3,14,18)         2     51.4700         17.1567         22.8756    
     (1,11,2) (3,15,1)         2     51.4700         17.1567         22.8756    
     (1,12,3) (3,15,1)         2     34.3133         11.4378         34.3133    
     (1,12,3) (3,15,2)         2     34.3133         11.4378         34.3133    
     (1,12,3) (3,15,3)         2     34.3133         11.4378         34.3133    
     (1,12,4) (3,15,4)         2     34.3133         11.4378         34.3133    
     (1,12,4) (3,15,5)         2     34.3133         11.4378         34.3133    
     (1,12,4) (3,15,6)         2     34.3133         11.4378         34.3133    
     (1,12,5) (3,15,7)         2     34.3133         11.4378         34.3133    
     (1,12,5) (3,15,8)         2     34.3133         11.4378         34.3133    
     (1,12,5) (3,15,9)         2     34.3133         11.4378         34.3133    
     (1,12,6) (3,15,10)         2     34.3133         11.4378         34.3133    
     (1,12,6) (3,15,11)         2     34.3133         11.4378         34.3133    
     (1,12,6) (3,15,12)         2     34.3133         11.4378         34.3133    
     (1,12,7) (3,15,13)         2     34.3133         11.4378         34.3133    
     (1,12,7) (3,15,14)         2     34.3133         11.4378         34.3133    
     (1,12,7) (3,15,15)         2     34.3133         11.4378         34.3133    
     (1,12,8) (3,15,16)         2     34.3133         11.4378         34.3133    
     (1,12,8) (3,15,17)         2     34.3133         11.4378         34.3133    
     (1,11,9) (3,15,18)         2     51.4700         17.1567         22.8756    
     (1,12,8) (3,15,18)         2     34.3133         11.4378         34.3133    
     (2,7,2) (4,1,1)         2     51.4700         17.1567         22.8756    
     (2,6,3) (4,1,1)         2     34.3133         11.4378         34.3133    
     (2,6,3) (4,1,2)         2     34.3133         11.4378         34.3133    
     (2,6,3) (4,1,3)         2     34.3133         11.4378         34.3133    
     (2,6,4) (4,1,4)         2     34.3133         11.4378         34.3133    
     (2,6,4) (4,1,5)         2     34.3133         11.4378         34.3133    
     (2,6,4) (4,1,6)         2     34.3133         11.4378         34.3133    
     (2,6,5) (4,1,7)         2     34.3133         11.4378         34.3133    
     (2,6,5) (4,1,8)         2     34.3133         11.4378         34.3133    
     (2,6,5) (4,1,9)         2     34.3133         11.4378         34.3133    
     (2,6,6) (4,1,10)         2     34.3133         11.4378         34.3133    
     (2,6,6) (4,1,11)         2     34.3133         11.4378         34.3133    
     (2,6,6) (4,1,12)         2     34.3133         11.4378         34.3133    
     (2,6,7) (4,1,13)         2     34.3133         11.4378         34.3133    
     (2,6,7) (4,1,14)         2     34.3133         11.4378         34.3133    
     (2,6,7) (4,1,15)         2     34.3133         11.4378         34.3133    
     (2,6,8) (4,1,16)         2     34.3133         11.4378         34.3133    
     (2,6,8) (4,1,17)         2     34.3133         11.4378         34.3133    
     (2,7,9) (4,1,18)         2     51.4700         17.1567         22.8756    
     (2,6,8) (4,1,18)         2     34.3133         11.4378         34.3133    
     (2,7,2) (4,2,1)         2     51.4700         17.1567         22.8756    
     (2,7,9) (4,2,18)         2     51.4700         17.1567         22.8756    
     (2,7,2) (4,3,1)         2     51.4700         17.1567         22.8756    
     (2,7,9) (4,3,18)         2     51.4700         17.1567         22.8756    
     (2,8,2) (4,4,1)         2     51.4700         17.1567         22.8756    
     (2,8,9) (4,4,18)         2     51.4700         17.1567         22.8756    
     (2,8,2) (4,5,1)         2     51.4700         17.1567         22.8756    
     (2,8,9) (4,5,18)         2     51.4700         17.1567         22.8756    
     (2,8,2) (4,6,1)         2     51.4700         17.1567         22.8756    
     (2,8,9) (4,6,18)         2     51.4700         17.1567         22.8756    
     (2,9,2) (4,7,1)         2     51.4700         17.1567         22.8756    
     (2,9,9) (4,7,18)         2     51.4700         17.1567         22.8756    
     (2,9,2) (4,8,1)         2     51.4700         17.1567         22.8756    
     (2,9,9) (4,8,18)         2     51.4700         17.1567         22.8756    
     (2,9,2) (4,9,1)         2     51.4700         17.1567         22.8756    
     (2,9,9) (4,9,18)         2     51.4700         17.1567         22.8756    
     (2,10,2) (4,10,1)         2     51.4700         17.1567         22.8756    
     (2,10,9) (4,10,18)         2     51.4700         17.1567         22.8756    
     (2,10,2) (4,11,1)         2     51.4700         17.1567         22.8756    
     (2,10,9) (4,11,18)         2     51.4700         17.1567         22.8756    
     (2,10,2) (4,12,1)         2     51.4700         17.1567         22.8756    
     (2,10,9) (4,12,18)         2     51.4700         17.1567         22.8756    
     (2,11,2) (4,13,1)         2     51.4700         17.1567         22.8756    
     (2,11,9) (4,13,18)         2     51.4700         17.1567         22.8756    
     (2,11,2) (4,14,1)         2     51.4700         17.1567         22.8756    
     (2,11,9) (4,14,18)         2     51.4700         17.1567         22.8756    
     (2,11,2) (4,15,1)         2     51.4700         17.1567         22.8756    
     (2,12,3) (4,15,1)         2     34.3133         11.4378         34.3133    
     (2,12,3) (4,15,2)         2     34.3133         11.4378         34.3133    
     (2,12,3) (4,15,3)         2     34.3133         11.4378         34.3133    
     (2,12,4) (4,15,4)         2     34.3133         11.4378         34.3133    
     (2,12,4) (4,15,5)         2     34.3133         11.4378         34.3133    
     (2,12,4) (4,15,6)         2     34.3133         11.4378         34.3133    
     (2,12,5) (4,15,7)         2     34.3133         11.4378         34.3133    
     (2,12,5) (4,15,8)         2     34.3133         11.4378         34.3133    
     (2,12,5) (4,15,9)         2     34.3133         11.4378         34.3133    
     (2,12,6) (4,15,10)         2     34.3133         11.4378         34.3133    
     (2,12,6) (4,15,11)         2     34.3133         11.4378         34.3133    
     (2,12,6) (4,15,12)         2     34.3133         11.4378         34.3133    
     (2,12,7) (4,15,13)         2     34.3133         11.4378         34.3133    
     (2,12,7) (4,15,14)         2     34.3133         11.4378         34.3133    
     (2,12,7) (4,15,15)         2     34.3133         11.4378         34.3133    
     (2,12,8) (4,15,16)         2     34.3133         11.4378         34.3133    
     (2,12,8) (4,15,17)         2     34.3133         11.4378         34.3133    
     (2,11,9) (4,15,18)         2     51.4700         17.1567         22.8756    
     (2,12,8) (4,15,18)         2     34.3133         11.4378         34.3133    
     (2,7,2) (5,1,1)         2     51.4700         17.1567         22.8756    
     (2,6,3) (5,1,1)         2     34.3133         11.4378         34.3133    
     (2,6,3) (5,1,2)         2     34.3133         11.4378         34.3133    
     (2,6,3) (5,1,3)         2     34.3133         11.4378         34.3133    
     (2,6,4) (5,1,4)         2     34.3133         11.4378         34.3133    
     (2,6,4) (5,1,5)         2     34.3133         11.4378         34.3133    
     (2,6,4) (5,1,6)         2     34.3133         11.4378         34.3133    
     (2,6,5) (5,1,7)         2     34.3133         11.4378         34.3133    
     (2,6,5) (5,1,8)         2     34.3133         11.4378         34.3133    
     (2,6,5) (5,1,9)         2     34.3133         11.4378         34.3133    
     (2,6,6) (5,1,10)         2     34.3133         11.4378         34.3133    
     (2,6,6) (5,1,11)         2     34.3133         11.4378         34.3133    
     (2,6,6) (5,1,12)         2     34.3133         11.4378         34.3133    
     (2,6,7) (5,1,13)         2     34.3133         11.4378         34.3133    
     (2,6,7) (5,1,14)         2     34.3133         11.4378         34.3133    
     (2,6,7) (5,1,15)         2     34.3133         11.4378         34.3133    
     (2,6,8) (5,1,16)         2     34.3133         11.4378         34.3133    
     (2,6,8) (5,1,17)         2     34.3133         11.4378         34.3133    
     (2,7,9) (5,1,18)         2     51.4700         17.1567         22.8756    
     (2,6,8) (5,1,18)         2     34.3133         11.4378         34.3133    
     (2,7,2) (5,2,1)         2     51.4700         17.1567         22.8756    
     (2,7,9) (5,2,18)         2     51.4700         17.1567         22.8756    
     (2,7,2) (5,3,1)         2     51.4700         17.1567         22.8756    
     (2,7,9) (5,3,18)         2     51.4700         17.1567         22.8756    
     (2,8,2) (5,4,1)         2     51.4700         17.1567         22.8756    
     (2,8,9) (5,4,18)         2     51.4700         17.1567         22.8756    
     (2,8,2) (5,5,1)         2     51.4700         17.1567         22.8756    
     (2,8,9) (5,5,18)         2     51.4700         17.1567         22.8756    
     (2,8,2) (5,6,1)         2     51.4700         17.1567         22.8756    
     (2,8,9) (5,6,18)         2     51.4700         17.1567         22.8756    
     (2,9,2) (5,7,1)         2     51.4700         17.1567         22.8756    
     (2,9,9) (5,7,18)         2     51.4700         17.1567         22.8756    
     (2,9,2) (5,8,1)         2     51.4700         17.1567         22.8756    
     (2,9,9) (5,8,18)         2     51.4700         17.1567         22.8756    
     (2,9,2) (5,9,1)         2     51.4700         17.1567         22.8756    
     (2,9,9) (5,9,18)         2     51.4700         17.1567         22.8756    
     (2,10,2) (5,10,1)         2     51.4700         17.1567         22.8756    
     (2,10,9) (5,10,18)         2     51.4700         17.1567         22.8756    
     (2,10,2) (5,11,1)         2     51.4700         17.1567         22.8756    
     (2,10,9) (5,11,18)         2     51.4700         17.1567         22.8756    
     (2,10,2) (5,12,1)         2     51.4700         17.1567         22.8756    
     (2,10,9) (5,12,18)         2     51.4700         17.1567         22.8756    
     (2,11,2) (5,13,1)         2     51.4700         17.1567         22.8756    
     (2,11,9) (5,13,18)         2     51.4700         17.1567         22.8756    
     (2,11,2) (5,14,1)         2     51.4700         17.1567         22.8756    
     (2,11,9) (5,14,18)         2     51.4700         17.1567         22.8756    
     (2,11,2) (5,15,1)         2     51.4700         17.1567         22.8756    
     (2,12,3) (5,15,1)         2     34.3133         11.4378         34.3133    
     (2,12,3) (5,15,2)         2     34.3133         11.4378         34.3133    
     (2,12,3) (5,15,3)         2     34.3133         11.4378         34.3133    
     (2,12,4) (5,15,4)         2     34.3133         11.4378         34.3133    
     (2,12,4) (5,15,5)         2     34.3133         11.4378         34.3133    
     (2,12,4) (5,15,6)         2     34.3133         11.4378         34.3133    
     (2,12,5) (5,15,7)         2     34.3133         11.4378         34.3133    
     (2,12,5) (5,15,8)         2     34.3133         11.4378         34.3133    
     (2,12,5) (5,15,9)         2     34.3133         11.4378         34.3133    
     (2,12,6) (5,15,10)         2     34.3133         11.4378         34.3133    
     (2,12,6) (5,15,11)         2     34.3133         11.4378         34.3133    
     (2,12,6) (5,15,12)         2     34.3133         11.4378         34.3133    
     (2,12,7) (5,15,13)         2     34.3133         11.4378         34.3133    
     (2,12,7) (5,15,14)         2     34.3133         11.4378         34.3133    
     (2,12,7) (5,15,15)         2     34.3133         11.4378         34.3133    
     (2,12,8) (5,15,16)         2     34.3133         11.4378         34.3133    
     (2,12,8) (5,15,17)         2     34.3133         11.4378         34.3133    
     (2,11,9) (5,15,18)         2     51.4700         17.1567         22.8756    
     (2,12,8) (5,15,18)         2     34.3133         11.4378         34.3133    
     (2,7,2) (6,1,1)         2     51.4700         17.1567         22.8756    
     (2,6,3) (6,1,1)         2     34.3133         11.4378         34.3133    
     (3,7,3) (6,1,1)         0     8.33350         2.77767         784.937    
     (2,6,3) (6,1,2)         2     34.3133         11.4378         34.3133    
     (3,7,3) (6,1,2)         0     8.33350         2.77767         784.937    
     (2,6,3) (6,1,3)         2     34.3133         11.4378         34.3133    
     (3,7,3) (6,1,3)         0     8.33350         2.77767         784.937    
     (2,6,4) (6,1,4)         2     34.3133         11.4378         34.3133    
     (3,7,4) (6,1,4)         0     8.33350         2.77767         784.937    
     (2,6,4) (6,1,5)         2     34.3133         11.4378         34.3133    
     (3,7,4) (6,1,5)         0     8.33350         2.77767         784.937    
     (2,6,4) (6,1,6)         2     34.3133         11.4378         34.3133    
     (3,7,4) (6,1,6)         0     8.33350         2.77767         784.937    
     (2,6,5) (6,1,7)         2     34.3133         11.4378         34.3133    
     (3,7,5) (6,1,7)         0     8.33350         2.77767         784.937    
     (2,6,5) (6,1,8)         2     34.3133         11.4378         34.3133    
     (3,7,5) (6,1,8)         0     8.33350         2.77767         784.937    
     (2,6,5) (6,1,9)         2     34.3133         11.4378         34.3133    
     (3,7,5) (6,1,9)         0     8.33350         2.77767         784.937    
     (2,6,6) (6,1,10)         2     34.3133         11.4378         34.3133    
     (3,7,6) (6,1,10)         0     8.33350         2.77767         784.937    
     (2,6,6) (6,1,11)         2     34.3133         11.4378         34.3133    
     (3,7,6) (6,1,11)         0     8.33350         2.77767         784.937    
     (2,6,6) (6,1,12)         2     34.3133         11.4378         34.3133    
     (3,7,6) (6,1,12)         0     8.33350         2.77767         784.937    
     (2,6,7) (6,1,13)         2     34.3133         11.4378         34.3133    
     (3,7,7) (6,1,13)         0     8.33350         2.77767         784.937    
     (2,6,7) (6,1,14)         2     34.3133         11.4378         34.3133    
     (3,7,7) (6,1,14)         0     8.33350         2.77767         784.937    
     (2,6,7) (6,1,15)         2     34.3133         11.4378         34.3133    
     (3,7,7) (6,1,15)         0     8.33350         2.77767         784.937    
     (2,6,8) (6,1,16)         2     34.3133         11.4378         34.3133    
     (3,7,8) (6,1,16)         0     8.33350         2.77767         784.937    
     (2,6,8) (6,1,17)         2     34.3133         11.4378         34.3133    
     (3,7,8) (6,1,17)         0     8.33350         2.77767         784.937    
     (2,7,9) (6,1,18)         2     51.4700         17.1567         22.8756    
     (2,6,8) (6,1,18)         2     34.3133         11.4378         34.3133    
     (3,7,8) (6,1,18)         0     8.33350         2.77767         784.937    
     (2,7,2) (6,2,1)         2     51.4700         17.1567         22.8756    
     (3,7,3) (6,2,1)         0     8.33350         2.77767         784.937    
     (3,7,3) (6,2,2)         0     8.33350         2.77767         784.937    
     (3,7,3) (6,2,3)         0     8.33350         2.77767         784.937    
     (3,7,4) (6,2,4)         0     8.33350         2.77767         784.937    
     (3,7,4) (6,2,5)         0     8.33350         2.77767         784.937    
     (3,7,4) (6,2,6)         0     8.33350         2.77767         784.937    
     (3,7,5) (6,2,7)         0     8.33350         2.77767         784.937    
     (3,7,5) (6,2,8)         0     8.33350         2.77767         784.937    
     (3,7,5) (6,2,9)         0     8.33350         2.77767         784.937    
     (3,7,6) (6,2,10)         0     8.33350         2.77767         784.937    
     (3,7,6) (6,2,11)         0     8.33350         2.77767         784.937    
     (3,7,6) (6,2,12)         0     8.33350         2.77767         784.937    
     (3,7,7) (6,2,13)         0     8.33350         2.77767         784.937    
     (3,7,7) (6,2,14)         0     8.33350         2.77767         784.937    
     (3,7,7) (6,2,15)         0     8.33350         2.77767         784.937    
     (3,7,8) (6,2,16)         0     8.33350         2.77767         784.937    
     (3,7,8) (6,2,17)         0     8.33350         2.77767         784.937    
     (2,7,9) (6,2,18)         2     51.4700         17.1567         22.8756    
     (3,7,8) (6,2,18)         0     8.33350         2.77767         784.937    
     (2,7,2) (6,3,1)         2     51.4700         17.1567         22.8756    
     (3,7,3) (6,3,1)         0     8.33350         2.77767         784.937    
     (3,7,3) (6,3,2)         0     8.33350         2.77767         784.937    
     (3,7,3) (6,3,3)         0     8.33350         2.77767         784.937    
     (3,7,4) (6,3,4)         0     8.33350         2.77767         784.937    
     (3,7,4) (6,3,5)         0     8.33350         2.77767         784.937    
     (3,7,4) (6,3,6)         0     8.33350         2.77767         784.937    
     (3,7,5) (6,3,7)         0     8.33350         2.77767         784.937    
     (3,7,5) (6,3,8)         0     8.33350         2.77767         784.937    
     (3,7,5) (6,3,9)         0     8.33350         2.77767         784.937    
     (3,7,6) (6,3,10)         0     8.33350         2.77767         784.937    
     (3,7,6) (6,3,11)         0     8.33350         2.77767         784.937    
     (3,7,6) (6,3,12)         0     8.33350         2.77767         784.937    
     (3,7,7) (6,3,13)         0     8.33350         2.77767         784.937    
     (3,7,7) (6,3,14)         0     8.33350         2.77767         784.937    
     (3,7,7) (6,3,15)         0     8.33350         2.77767         784.937    
     (3,7,8) (6,3,16)         0     8.33350         2.77767         784.937    
     (3,7,8) (6,3,17)         0     8.33350         2.77767         784.937    
     (2,7,9) (6,3,18)         2     51.4700         17.1567         22.8756    
     (3,7,8) (6,3,18)         0     8.33350         2.77767         784.937    
     (2,8,2) (6,4,1)         2     51.4700         17.1567         22.8756    
     (3,8,3) (6,4,1)         0     8.33350         2.77767         784.937    
     (3,8,3) (6,4,2)         0     8.33350         2.77767         784.937    
     (3,8,3) (6,4,3)         0     8.33350         2.77767         784.937    
     (3,8,4) (6,4,4)         0     8.33350         2.77767         784.937    
     (3,8,4) (6,4,5)         0     8.33350         2.77767         784.937    
     (3,8,4) (6,4,6)         0     8.33350         2.77767         784.937    
     (3,8,5) (6,4,7)         0     8.33350         2.77767         784.937    
     (3,8,5) (6,4,8)         0     8.33350         2.77767         784.937    
     (3,8,5) (6,4,9)         0     8.33350         2.77767         784.937    
     (3,8,6) (6,4,10)         0     8.33350         2.77767         784.937    
     (3,8,6) (6,4,11)         0     8.33350         2.77767         784.937    
     (3,8,6) (6,4,12)         0     8.33350         2.77767         784.937    
     (3,8,7) (6,4,13)         0     8.33350         2.77767         784.937    
     (3,8,7) (6,4,14)         0     8.33350         2.77767         784.937    
     (3,8,7) (6,4,15)         0     8.33350         2.77767         784.937    
     (3,8,8) (6,4,16)         0     8.33350         2.77767         784.937    
     (3,8,8) (6,4,17)         0     8.33350         2.77767         784.937    
     (2,8,9) (6,4,18)         2     51.4700         17.1567         22.8756    
     (3,8,8) (6,4,18)         0     8.33350         2.77767         784.937    
     (2,8,2) (6,5,1)         2     51.4700         17.1567         22.8756    
     (3,8,3) (6,5,1)         0     8.33350         2.77767         784.937    
     (3,8,3) (6,5,2)         0     8.33350         2.77767         784.937    
     (3,8,3) (6,5,3)         0     8.33350         2.77767         784.937    
     (3,8,4) (6,5,4)         0     8.33350         2.77767         784.937    
     (3,8,4) (6,5,5)         0     8.33350         2.77767         784.937    
     (3,8,4) (6,5,6)         0     8.33350         2.77767         784.937    
     (3,8,5) (6,5,7)         0     8.33350         2.77767         784.937    
     (3,8,5) (6,5,8)         0     8.33350         2.77767         784.937    
     (3,8,5) (6,5,9)         0     8.33350         2.77767         784.937    
     (3,8,6) (6,5,10)         0     8.33350         2.77767         784.937    
     (3,8,6) (6,5,11)         0     8.33350         2.77767         784.937    
     (3,8,6) (6,5,12)         0     8.33350         2.77767         784.937    
     (3,8,7) (6,5,13)         0     8.33350         2.77767         784.937    
     (3,8,7) (6,5,14)         0     8.33350         2.77767         784.937    
     (3,8,7) (6,5,15)         0     8.33350         2.77767         784.937    
     (3,8,8) (6,5,16)         0     8.33350         2.77767         784.937    
     (3,8,8) (6,5,17)         0     8.33350         2.77767         784.937    
     (2,8,9) (6,5,18)         2     51.4700         17.1567         22.8756    
     (3,8,8) (6,5,18)         0     8.33350         2.77767         784.937    
     (2,8,2) (6,6,1)         2     51.4700         17.1567         22.8756    
     (3,8,3) (6,6,1)         0     8.33350         2.77767         784.937    
     (3,8,3) (6,6,2)         0     8.33350         2.77767         784.937    
     (3,8,3) (6,6,3)         0     8.33350         2.77767         784.937    
     (3,8,4) (6,6,4)         0     8.33350         2.77767         784.937    
     (3,8,4) (6,6,5)         0     8.33350         2.77767         784.937    
     (3,8,4) (6,6,6)         0     8.33350         2.77767         784.937    
     (3,8,5) (6,6,7)         0     8.33350         2.77767         784.937    
     (3,8,5) (6,6,8)         0     8.33350         2.77767         784.937    
     (3,8,5) (6,6,9)         0     8.33350         2.77767         784.937    
     (3,8,6) (6,6,10)         0     8.33350         2.77767         784.937    
     (3,8,6) (6,6,11)         0     8.33350         2.77767         784.937    
     (3,8,6) (6,6,12)         0     8.33350         2.77767         784.937    
     (3,8,7) (6,6,13)         0     8.33350         2.77767         784.937    
     (3,8,7) (6,6,14)         0     8.33350         2.77767         784.937    
     (3,8,7) (6,6,15)         0     8.33350         2.77767         784.937    
     (3,8,8) (6,6,16)         0     8.33350         2.77767         784.937    
     (3,8,8) (6,6,17)         0     8.33350         2.77767         784.937    
     (2,8,9) (6,6,18)         2     51.4700         17.1567         22.8756    
     (3,8,8) (6,6,18)         0     8.33350         2.77767         784.937    
     (2,9,2) (6,7,1)         2     51.4700         17.1567         22.8756    
     (3,9,3) (6,7,1)         0     8.33350         2.77767         784.937    
     (3,9,3) (6,7,2)         0     8.33350         2.77767         784.937    
     (3,9,3) (6,7,3)         0     8.33350         2.77767         784.937    
     (3,9,4) (6,7,4)         0     8.33350         2.77767         784.937    
     (3,9,4) (6,7,5)         0     8.33350         2.77767         784.937    
     (3,9,4) (6,7,6)         0     8.33350         2.77767         784.937    
     (3,9,5) (6,7,7)         0     8.33350         2.77767         784.937    
     (3,9,5) (6,7,8)         0     8.33350         2.77767         784.937    
     (3,9,5) (6,7,9)         0     8.33350         2.77767         784.937    
     (3,9,6) (6,7,10)         0     8.33350         2.77767         784.937    
     (3,9,6) (6,7,11)         0     8.33350         2.77767         784.937    
     (3,9,6) (6,7,12)         0     8.33350         2.77767         784.937    
     (3,9,7) (6,7,13)         0     8.33350         2.77767         784.937    
     (3,9,7) (6,7,14)         0     8.33350         2.77767         784.937    
     (3,9,7) (6,7,15)         0     8.33350         2.77767         784.937    
     (3,9,8) (6,7,16)         0     8.33350         2.77767         784.937    
     (3,9,8) (6,7,17)         0     8.33350         2.77767         784.937    
     (2,9,9) (6,7,18)         2     51.4700         17.1567         22.8756    
     (3,9,8) (6,7,18)         0     8.33350         2.77767         784.937    
     (2,9,2) (6,8,1)         2     51.4700         17.1567         22.8756    
     (3,9,3) (6,8,1)         0     8.33350         2.77767         784.937    
     (3,9,3) (6,8,2)         0     8.33350         2.77767         784.937    
     (3,9,3) (6,8,3)         0     8.33350         2.77767         784.937    
     (3,9,4) (6,8,4)         0     8.33350         2.77767         784.937    
     (3,9,4) (6,8,5)         0     8.33350         2.77767         784.937    
     (3,9,4) (6,8,6)         0     8.33350         2.77767         784.937    
     (3,9,5) (6,8,7)         0     8.33350         2.77767         784.937    
     (3,9,5) (6,8,8)         0     8.33350         2.77767         784.937    
     (3,9,5) (6,8,9)         0     8.33350         2.77767         784.937    
     (3,9,6) (6,8,10)         0     8.33350         2.77767         784.937    
     (3,9,6) (6,8,11)         0     8.33350         2.77767         784.937    
     (3,9,6) (6,8,12)         0     8.33350         2.77767         784.937    
     (3,9,7) (6,8,13)         0     8.33350         2.77767         784.937    
     (3,9,7) (6,8,14)         0     8.33350         2.77767         784.937    
     (3,9,7) (6,8,15)         0     8.33350         2.77767         784.937    
     (3,9,8) (6,8,16)         0     8.33350         2.77767         784.937    
     (3,9,8) (6,8,17)         0     8.33350         2.77767         784.937    
     (2,9,9) (6,8,18)         2     51.4700         17.1567         22.8756    
     (3,9,8) (6,8,18)         0     8.33350         2.77767         784.937    
     (2,9,2) (6,9,1)         2     51.4700         17.1567         22.8756    
     (3,9,3) (6,9,1)         0     8.33350         2.77767         784.937    
     (3,9,3) (6,9,2)         0     8.33350         2.77767         784.937    
     (3,9,3) (6,9,3)         0     8.33350         2.77767         784.937    
     (3,9,4) (6,9,4)         0     8.33350         2.77767         784.937    
     (3,9,4) (6,9,5)         0     8.33350         2.77767         784.937    
     (3,9,4) (6,9,6)         0     8.33350         2.77767         784.937    
     (3,9,5) (6,9,7)         0     8.33350         2.77767         784.937    
     (3,9,5) (6,9,8)         0     8.33350         2.77767         784.937    
     (3,9,5) (6,9,9)         0     8.33350         2.77767         784.937    
     (3,9,6) (6,9,10)         0     8.33350         2.77767         784.937    
     (3,9,6) (6,9,11)         0     8.33350         2.77767         784.937    
     (3,9,6) (6,9,12)         0     8.33350         2.77767         784.937    
     (3,9,7) (6,9,13)         0     8.33350         2.77767         784.937    
     (3,9,7) (6,9,14)         0     8.33350         2.77767         784.937    
     (3,9,7) (6,9,15)         0     8.33350         2.77767         784.937    
     (3,9,8) (6,9,16)         0     8.33350         2.77767         784.937    
     (3,9,8) (6,9,17)         0     8.33350         2.77767         784.937    
     (2,9,9) (6,9,18)         2     51.4700         17.1567         22.8756    
     (3,9,8) (6,9,18)         0     8.33350         2.77767         784.937    
     (2,10,2) (6,10,1)         2     51.4700         17.1567         22.8756    
     (3,10,3) (6,10,1)         0     8.33350         2.77767         784.937    
     (3,10,3) (6,10,2)         0     8.33350         2.77767         784.937    
     (3,10,3) (6,10,3)         0     8.33350         2.77767         784.937    
     (3,10,4) (6,10,4)         0     8.33350         2.77767         784.937    
     (3,10,4) (6,10,5)         0     8.33350         2.77767         784.937    
     (3,10,4) (6,10,6)         0     8.33350         2.77767         784.937    
     (3,10,5) (6,10,7)         0     8.33350         2.77767         784.937    
     (3,10,5) (6,10,8)         0     8.33350         2.77767         784.937    
     (3,10,5) (6,10,9)         0     8.33350         2.77767         784.937    
     (3,10,6) (6,10,10)         0     8.33350         2.77767         784.937    
     (3,10,6) (6,10,11)         0     8.33350         2.77767         784.937    
     (3,10,6) (6,10,12)         0     8.33350         2.77767         784.937    
     (3,10,7) (6,10,13)         0     8.33350         2.77767         784.937    
     (3,10,7) (6,10,14)         0     8.33350         2.77767         784.937    
     (3,10,7) (6,10,15)         0     8.33350         2.77767         784.937    
     (3,10,8) (6,10,16)         0     8.33350         2.77767         784.937    
     (3,10,8) (6,10,17)         0     8.33350         2.77767         784.937    
     (2,10,9) (6,10,18)         2     51.4700         17.1567         22.8756    
     (3,10,8) (6,10,18)         0     8.33350         2.77767         784.937    
     (2,10,2) (6,11,1)         2     51.4700         17.1567         22.8756    
     (3,10,3) (6,11,1)         0     8.33350         2.77767         784.937    
     (3,10,3) (6,11,2)         0     8.33350         2.77767         784.937    
     (3,10,3) (6,11,3)         0     8.33350         2.77767         784.937    
     (3,10,4) (6,11,4)         0     8.33350         2.77767         784.937    
     (3,10,4) (6,11,5)         0     8.33350         2.77767         784.937    
     (3,10,4) (6,11,6)         0     8.33350         2.77767         784.937    
     (3,10,5) (6,11,7)         0     8.33350         2.77767         784.937    
     (3,10,5) (6,11,8)         0     8.33350         2.77767         784.937    
     (3,10,5) (6,11,9)         0     8.33350         2.77767         784.937    
     (3,10,6) (6,11,10)         0     8.33350         2.77767         784.937    
     (3,10,6) (6,11,11)         0     8.33350         2.77767         784.937    
     (3,10,6) (6,11,12)         0     8.33350         2.77767         784.937    
     (3,10,7) (6,11,13)         0     8.33350         2.77767         784.937    
     (3,10,7) (6,11,14)         0     8.33350         2.77767         784.937    
     (3,10,7) (6,11,15)         0     8.33350         2.77767         784.937    
     (3,10,8) (6,11,16)         0     8.33350         2.77767         784.937    
     (3,10,8) (6,11,17)         0     8.33350         2.77767         784.937    
     (2,10,9) (6,11,18)         2     51.4700         17.1567         22.8756    
     (3,10,8) (6,11,18)         0     8.33350         2.77767         784.937    
     (2,10,2) (6,12,1)         2     51.4700         17.1567         22.8756    
     (3,10,3) (6,12,1)         0     8.33350         2.77767         784.937    
     (3,10,3) (6,12,2)         0     8.33350         2.77767         784.937    
     (3,10,3) (6,12,3)         0     8.33350         2.77767         784.937    
     (3,10,4) (6,12,4)         0     8.33350         2.77767         784.937    
     (3,10,4) (6,12,5)         0     8.33350         2.77767         784.937    
     (3,10,4) (6,12,6)         0     8.33350         2.77767         784.937    
     (3,10,5) (6,12,7)         0     8.33350         2.77767         784.937    
     (3,10,5) (6,12,8)         0     8.33350         2.77767         784.937    
     (3,10,5) (6,12,9)         0     8.33350         2.77767         784.937    
     (3,10,6) (6,12,10)         0     8.33350         2.77767         784.937    
     (3,10,6) (6,12,11)         0     8.33350         2.77767         784.937    
     (3,10,6) (6,12,12)         0     8.33350         2.77767         784.937    
     (3,10,7) (6,12,13)         0     8.33350         2.77767         784.937    
     (3,10,7) (6,12,14)         0     8.33350         2.77767         784.937    
     (3,10,7) (6,12,15)         0     8.33350         2.77767         784.937    
     (3,10,8) (6,12,16)         0     8.33350         2.77767         784.937    
     (3,10,8) (6,12,17)         0     8.33350         2.77767         784.937    
     (2,10,9) (6,12,18)         2     51.4700         17.1567         22.8756    
     (3,10,8) (6,12,18)         0     8.33350         2.77767         784.937    
     (2,11,2) (6,13,1)         2     51.4700         17.1567         22.8756    
     (3,11,3) (6,13,1)         0     8.33350         2.77767         784.937    
     (3,11,3) (6,13,2)         0     8.33350         2.77767         784.937    
     (3,11,3) (6,13,3)         0     8.33350         2.77767         784.937    
     (3,11,4) (6,13,4)         0     8.33350         2.77767         784.937    
     (3,11,4) (6,13,5)         0     8.33350         2.77767         784.937    
     (3,11,4) (6,13,6)         0     8.33350         2.77767         784.937    
     (3,11,5) (6,13,7)         0     8.33350         2.77767         784.937    
     (3,11,5) (6,13,8)         0     8.33350         2.77767         784.937    
     (3,11,5) (6,13,9)         0     8.33350         2.77767         784.937    
     (3,11,6) (6,13,10)         0     8.33350         2.77767         784.937    
     (3,11,6) (6,13,11)         0     8.33350         2.77767         784.937    
     (3,11,6) (6,13,12)         0     8.33350         2.77767         784.937    
     (3,11,7) (6,13,13)         0     8.33350         2.77767         784.937    
     (3,11,7) (6,13,14)         0     8.33350         2.77767         784.937    
     (3,11,7) (6,13,15)         0     8.33350         2.77767         784.937    
     (3,11,8) (6,13,16)         0     8.33350         2.77767         784.937    
     (3,11,8) (6,13,17)         0     8.33350         2.77767         784.937    
     (2,11,9) (6,13,18)         2     51.4700         17.1567         22.8756    
     (3,11,8) (6,13,18)         0     8.33350         2.77767         784.937    
     (2,11,2) (6,14,1)         2     51.4700         17.1567         22.8756    
     (3,11,3) (6,14,1)         0     8.33350         2.77767         784.937    
     (3,11,3) (6,14,2)         0     8.33350         2.77767         784.937    
     (3,11,3) (6,14,3)         0     8.33350         2.77767         784.937    
     (3,11,4) (6,14,4)         0     8.33350         2.77767         784.937    
     (3,11,4) (6,14,5)         0     8.33350         2.77767         784.937    
     (3,11,4) (6,14,6)         0     8.33350         2.77767         784.937    
     (3,11,5) (6,14,7)         0     8.33350         2.77767         784.937    
     (3,11,5) (6,14,8)         0     8.33350         2.77767         784.937    
     (3,11,5) (6,14,9)         0     8.33350         2.77767         784.937    
     (3,11,6) (6,14,10)         0     8.33350         2.77767         784.937    
     (3,11,6) (6,14,11)         0     8.33350         2.77767         784.937    
     (3,11,6) (6,14,12)         0     8.33350         2.77767         784.937    
     (3,11,7) (6,14,13)         0     8.33350         2.77767         784.937    
     (3,11,7) (6,14,14)         0     8.33350         2.77767         784.937    
     (3,11,7) (6,14,15)         0     8.33350         2.77767         784.937    
     (3,11,8) (6,14,16)         0     8.33350         2.77767         784.937    
     (3,11,8) (6,14,17)         0     8.33350         2.77767         784.937    
     (2,11,9) (6,14,18)         2     51.4700         17.1567         22.8756    
     (3,11,8) (6,14,18)         0     8.33350         2.77767         784.937    
     (2,11,2) (6,15,1)         2     51.4700         17.1567         22.8756    
     (2,12,3) (6,15,1)         2     34.3133         11.4378         34.3133    
     (3,11,3) (6,15,1)         0     8.33350         2.77767         784.937    
     (2,12,3) (6,15,2)         2     34.3133         11.4378         34.3133    
     (3,11,3) (6,15,2)         0     8.33350         2.77767         784.937    
     (2,12,3) (6,15,3)         2     34.3133         11.4378         34.3133    
     (3,11,3) (6,15,3)         0     8.33350         2.77767         784.937    
     (2,12,4) (6,15,4)         2     34.3133         11.4378         34.3133    
     (3,11,4) (6,15,4)         0     8.33350         2.77767         784.937    
     (2,12,4) (6,15,5)         2     34.3133         11.4378         34.3133    
     (3,11,4) (6,15,5)         0     8.33350         2.77767         784.937    
     (2,12,4) (6,15,6)         2     34.3133         11.4378         34.3133    
     (3,11,4) (6,15,6)         0     8.33350         2.77767         784.937    
     (2,12,5) (6,15,7)         2     34.3133         11.4378         34.3133    
     (3,11,5) (6,15,7)         0     8.33350         2.77767         784.937    
     (2,12,5) (6,15,8)         2     34.3133         11.4378         34.3133    
     (3,11,5) (6,15,8)         0     8.33350         2.77767         784.937    
     (2,12,5) (6,15,9)         2     34.3133         11.4378         34.3133    
     (3,11,5) (6,15,9)         0     8.33350         2.77767         784.937    
     (2,12,6) (6,15,10)         2     34.3133         11.4378         34.3133    
     (3,11,6) (6,15,10)         0     8.33350         2.77767         784.937    
     (2,12,6) (6,15,11)         2     34.3133         11.4378         34.3133    
     (3,11,6) (6,15,11)         0     8.33350         2.77767         784.937    
     (2,12,6) (6,15,12)         2     34.3133         11.4378         34.3133    
     (3,11,6) (6,15,12)         0     8.33350         2.77767         784.937    
     (2,12,7) (6,15,13)         2     34.3133         11.4378         34.3133    
     (3,11,7) (6,15,13)         0     8.33350         2.77767         784.937    
     (2,12,7) (6,15,14)         2     34.3133         11.4378         34.3133    
     (3,11,7) (6,15,14)         0     8.33350         2.77767         784.937    
     (2,12,7) (6,15,15)         2     34.3133         11.4378         34.3133    
     (3,11,7) (6,15,15)         0     8.33350         2.77767         784.937    
     (2,12,8) (6,15,16)         2     34.3133         11.4378         34.3133    
     (3,11,8) (6,15,16)         0     8.33350         2.77767         784.937    
     (2,12,8) (6,15,17)         2     34.3133         11.4378         34.3133    
     (3,11,8) (6,15,17)         0     8.33350         2.77767         784.937    
     (2,11,9) (6,15,18)         2     51.4700         17.1567         22.8756    
     (2,12,8) (6,15,18)         2     34.3133         11.4378         34.3133    
     (3,11,8) (6,15,18)         0     8.33350         2.77767         784.937    
 END OF EXCHANGEDATA

PROCESSING MODEL CONNECTIONS
END OF MODEL CONNECTIONS

 MVR -- WATER MOVER PACKAGE, VERSION 8, 1/29/2016 INPUT READ FROM UNIT 1023
 # File generated by Flopy version 3.9.1 on 05/26/2025 at 15:48:19.
 PROCESSING MVR OPTIONS
    LISTS OF WATER MOVER FLOWS WILL BE PRINTED TO LIST FILE.
    ALL PACKAGE NAMES ARE PRECEDED BY THE NAME OF THE MODEL CONTAINING THE PACKAGE.
 END OF MVR OPTIONS

 PROCESSING MVR DIMENSIONS
    MAXMVR = 2
    MAXPACKAGES = 2
 END OF MVR DIMENSIONS

 PROCESSING MVR PACKAGES
   INCLUDING PACKAGE: GWF-LGR-PARENT/SFR-PARENT
   INCLUDING PACKAGE: GWF-LGR-CHILD/SFR-CHILD
 END OF MVR PACKAGES

 IMS -- ITERATIVE MODEL SOLUTION PACKAGE, VERSION 6, 4/28/2017
         INPUT READ FROM UNIT 1020
 # File generated by Flopy version 3.9.1 on 05/26/2025 at 15:48:19.

 PROCESSING IMS OPTIONS
 END OF IMS OPTIONS

 PROCESSING IMS NONLINEAR
 END OF IMS NONLINEAR DATA
 ***UNDER-RELAXATION WILL NOT BE USED***
 

 PROCESSING LINEAR DATA
 END OF LINEAR DATA
 ***IMS LINEAR SOLVER WILL BE USED***

 IMSLINEAR -- UNSTRUCTURED LINEAR SOLUTION PACKAGE, VERSION 8, 04/28/2017
 An asymmetric matrix will be solved

 OUTER ITERATION CONVERGENCE CRITERION    (DVCLOSE) =    0.100000E-06
 MAXIMUM NUMBER OF OUTER ITERATIONS        (MXITER) = 100
 SOLVER PRINTOUT INDEX                     (IPRIMS) = 1
 NONLINEAR ITERATION METHOD            (NONLINMETH) = 0
 LINEAR SOLUTION METHOD                   (LINMETH) = 1

       SOLUTION BY THE BICONJUGATE-GRADIENT STABILIZED METHOD
 ------------------------------------------------------------------
 MAXIMUM OF 100 CALLS OF SOLUTION ROUTINE
 MAXIMUM OF 300 INTERNAL ITERATIONS PER CALL TO SOLUTION ROUTINE
 LINEAR ACCELERATION METHOD            = BCGS      
 MATRIX PRECONDITIONING TYPE           = MOD. INCOMPLETE LU  
 MATRIX SCALING APPROACH               = NO SCALING          
 MATRIX REORDERING APPROACH            = ORIGINAL ORDERING        
 NUMBER OF ORTHOGONALIZATIONS          = 0
 HEAD CHANGE CRITERION FOR CLOSURE     =    0.10000E-06
 RESIDUAL CHANGE CRITERION FOR CLOSURE =    0.10000E-05
 RESIDUAL CONVERGENCE OPTION           = 0
 RESIDUAL CONVERGENCE NORM             = INFINITY NORM   
 RELAXATION FACTOR                     =    0.97000E+00



 
    Solving:  Stress period:     1    Time step:     1
 
1
 STRESS PERIOD NO. 1, LENGTH =   1.000000    
 ------------------------------------------
 NUMBER OF TIME STEPS = 1
 MULTIPLIER FOR DELT =     1.000

  READING WATER MOVERS FOR PERIOD 1
    FROM PACKAGE: GWF-LGR-PARENT/SFR-PARENT FROM ID: 8
    TO PACKAGE: GWF-LGR-CHILD/SFR-CHILD TO ID: 1
    MOVER TYPE: FACTOR     1.00000    

    FROM PACKAGE: GWF-LGR-CHILD/SFR-CHILD FROM ID: 89
    TO PACKAGE: GWF-LGR-PARENT/SFR-PARENT TO ID: 9
    MOVER TYPE: FACTOR     1.00000    


 END OF DATA FOR PERIOD      1

    2 MOVERS READ FOR PERIOD 1
 INITIAL TIME STEP SIZE =   1.000000    



 PSEUDO-TRANSIENT CONTINUATION WILL BE APPLIED TO MODEL 1 ("GWF-LGR-PARENT") DURING THIS TIME STEP
 PSEUDO-TRANSIENT CONTINUATION WILL BE APPLIED TO MODEL 2 ("GWF-LGR-CHILD") DURING THIS TIME STEP

 SLN_1 OUTER ITERATION SUMMARY
 ----------------------------------------------------------------------------------------------------------
                                OUTER      INNER                    STEP   MAXIMUM CHANGE MODEL-(CELLID) OR
 OUTER ITERATION STEP       ITERATION  ITERATION  MAXIMUM CHANGE SUCCESS             MODEL-PACKAGE-(NUMBER)
 ----------------------------------------------------------------------------------------------------------
 Model                              1         21      -1.0474932                            2_GWF-(1,14,15)
 Model                              2         18 -3.08941203E-02                            2_GWF-(1,14,12)
 Model                              3         16 -6.48723986E-03                             1_GWF-(1,9,11)
 Model                              4         17 -1.64495089E-02                              2_GWF-(1,8,8)
 Model                              5         18 -8.47659988E-03                              2_GWF-(1,8,8)
 Model                              6         15 -3.59889890E-03                              2_GWF-(1,8,8)
 Model                              7         14 -1.41046420E-03                              2_GWF-(1,8,8)
 Model                              8         13 -5.67159503E-04                              2_GWF-(1,8,8)
 Model                              9         13 -2.26061516E-04                              2_GWF-(1,8,8)
 Model                             10         12 -9.04486286E-05                              2_GWF-(1,8,8)
 Model                             11          9 -3.61230241E-05                              2_GWF-(1,8,8)
 Model                             12          6 -1.42161615E-05                              2_GWF-(1,8,8)
 Model                             13          5 -5.33022611E-06                              2_GWF-(1,8,8)
 Model                             14          5 -2.20381747E-06                              2_GWF-(1,8,8)
 Model                             15          4 -1.13624653E-06                              2_GWF-(1,8,8)
 Model                             16          3 -5.62354977E-07                              2_GWF-(1,8,8)
 Model                             17          3 -2.87643267E-07                              2_GWF-(1,8,8)
 Model                             18          2 -1.73418371E-07                              2_GWF-(1,8,8)
 Model                             19          1 -9.18084240E-08       *                      2_GWF-(1,8,8)
 Package                           19             1.95723872E-08       *      2_GWF-SFR-PARENT-(9)-qfrommvr
 ----------------------------------------------------------------------------------------------------------


 19 CALLS TO NUMERICAL SOLUTION IN TIME STEP 1 STRESS PERIOD 1
 195 TOTAL ITERATIONS

 WATER MOVER PACKAGE (MVR) FLOW RATES   PERIOD      1   STEP        1
 --------------------------------------------------------------------------------------------------------------------------
                                               PROVIDER  AVAILABLE   PROVIDED                                     RECEIVER 
   NUMBER           PROVIDER LOCATION             ID        RATE       RATE            RECEIVER LOCATION             ID    
 --------------------------------------------------------------------------------------------------------------------------
     1          GWF-LGR-PARENT/SFR-PARENT         8       8.46       8.46           GWF-LGR-CHILD/SFR-CHILD          1     
     2           GWF-LGR-CHILD/SFR-CHILD          89      151.       151.          GWF-LGR-PARENT/SFR-PARENT         9     
 --------------------------------------------------------------------------------------------------------------------------



 SUMMARY OF EXCHANGE RATES FOR EXCHANGE GWF-GWF_1 WITH ID 1
          NODEM1          NODEM2            COND            X_M1            X_M2            FLOW
------------------------------------------------------------------------------------------------
         (1,7,2)         (1,1,1)     1.77462         49.1664         48.7437       -0.750097    
         (1,6,3)         (1,1,1)     3.76639         48.7550         48.7437       -4.247160E-02
         (1,6,3)         (1,1,2)     3.75188         48.7550         48.6675       -0.328374    
         (1,6,3)         (1,1,3)     3.73697         48.7550         48.5910       -0.613043    
         (1,6,4)         (1,1,4)     3.75041         48.3692         48.3880        7.066477E-02
         (1,6,4)         (1,1,5)     3.72658         48.3692         48.2626       -0.397057    
         (1,6,4)         (1,1,6)     3.70586         48.3692         48.1573       -0.785045    
         (1,6,5)         (1,1,7)     3.60863         47.8172         47.8559        0.139635    
         (1,6,5)         (1,1,8)     3.58902         47.8172         47.7518       -0.234910    
         (1,6,5)         (1,1,9)     3.56842         47.8172         47.6459       -0.611195    
         (1,6,6)        (1,1,10)     3.50393         47.3261         47.3427        5.834513E-02
         (1,6,6)        (1,1,11)     3.47950         47.3261         47.2145       -0.388361    
         (1,6,6)        (1,1,12)     3.45379         47.3261         47.0850       -0.832630    
         (1,6,7)        (1,1,13)     3.46098         46.9273         46.8822       -0.156093    
         (1,6,7)        (1,1,14)     3.45393         46.9273         46.8454       -0.283000    
         (1,6,7)        (1,1,15)     3.44354         46.9273         46.7919       -0.466242    
         (1,6,8)        (1,1,16)     3.49008         46.5940         46.6089        5.199274E-02
         (1,6,8)        (1,1,17)     3.47890         46.5940         46.5496       -0.154527    
         (1,7,9)        (1,1,18)     1.44618         46.2149         46.5004        0.412993    
         (1,6,8)        (1,1,18)     3.46947         46.5940         46.5004       -0.324748    
         (1,7,2)         (1,2,1)     1.77329         49.1664         48.7296       -0.774580    
         (1,7,9)        (1,2,18)     1.44430         46.2149         46.4757        0.376699    
         (1,7,2)         (1,3,1)     1.77126         49.1664         48.7081       -0.811775    
         (1,7,9)        (1,3,18)     1.44244         46.2149         46.4514        0.341252    
         (1,8,2)         (1,4,1)     1.75709         49.1204         48.6748       -0.782944    
         (1,8,9)        (1,4,18)     1.41752         46.1296         46.4125        0.400967    
         (1,8,2)         (1,5,1)     1.75507         49.1204         48.6535       -0.819381    
         (1,8,9)        (1,5,18)     1.41518         46.1296         46.3815        0.356551    
         (1,8,2)         (1,6,1)     1.75331         49.1204         48.6351       -0.850762    
         (1,8,9)        (1,6,18)     1.41174         46.1296         46.3368        0.292583    
         (1,9,2)         (1,7,1)     1.74382         49.0902         48.6110       -0.835601    
         (1,9,9)        (1,7,18)     1.36856         45.9960         46.2209        0.307676    
         (1,9,2)         (1,8,1)     1.74253         49.0902         48.5976       -0.858328    
         (1,9,9)        (1,8,18)     1.37299         45.9960         46.2792        0.388804    
         (1,9,2)         (1,9,1)     1.74178         49.0902         48.5898       -0.871484    
         (1,9,9)        (1,9,18)     1.37407         45.9960         46.2936        0.408887    
        (1,10,2)        (1,10,1)     1.73804         49.0786         48.5795       -0.867543    
        (1,10,9)       (1,10,18)     1.39848         46.0873         46.3055        0.305162    
        (1,10,2)        (1,11,1)     1.73757         49.0786         48.5746       -0.875807    
        (1,10,9)       (1,11,18)     1.39913         46.0873         46.3139        0.317134    
        (1,10,2)        (1,12,1)     1.73751         49.0786         48.5740       -0.876875    
        (1,10,9)       (1,12,18)     1.40009         46.0873         46.3264        0.334841    
        (1,11,2)        (1,13,1)     1.74030         49.0893         48.5767       -0.891994    
        (1,11,9)       (1,13,18)     1.41452         46.1376         46.3462        0.294975    
        (1,11,2)        (1,14,1)     1.74044         49.0893         48.5782       -0.889524    
        (1,11,9)       (1,14,18)     1.41565         46.1376         46.3607        0.315788    
        (1,11,2)        (1,15,1)     1.74022         49.0893         48.5759       -0.893389    
        (1,12,3)        (1,15,1)     3.61226         48.5370         48.5759        0.140499    
        (1,12,3)        (1,15,2)     3.59443         48.5370         48.4811       -0.201038    
        (1,12,3)        (1,15,3)     3.57244         48.5370         48.3679       -0.604170    
        (1,12,4)        (1,15,4)     3.47587         48.0017         48.0262        8.502192E-02
        (1,12,4)        (1,15,5)     3.43979         48.0017         47.8381       -0.562908    
        (1,12,4)        (1,15,6)     3.42265         48.0017         47.7527       -0.852245    
        (1,12,5)        (1,15,7)     3.41511         47.5674         47.5729        1.860542E-02
        (1,12,5)        (1,15,8)     3.40476         47.5674         47.5181       -0.167985    
        (1,12,5)        (1,15,9)     3.39054         47.5674         47.4444       -0.417142    
        (1,12,6)       (1,15,10)     3.38666         47.1622         47.2093        0.159707    
        (1,12,6)       (1,15,11)     3.37114         47.1622         47.1264       -0.120561    
        (1,12,6)       (1,15,12)     3.35420         47.1622         47.0384       -0.415018    
        (1,12,7)       (1,15,13)     3.35407         46.7694         46.7856        5.439366E-02
        (1,12,7)       (1,15,14)     3.33551         46.7694         46.6877       -0.272594    
        (1,12,7)       (1,15,15)     3.32297         46.7694         46.6233       -0.485369    
        (1,12,8)       (1,15,16)     3.38439         46.4558         46.4599        1.393824E-02
        (1,12,8)       (1,15,17)     3.37648         46.4558         46.4180       -0.127745    
        (1,11,9)       (1,15,18)     1.41708         46.1376         46.3794        0.342649    
        (1,12,8)       (1,15,18)     3.36912         46.4558         46.3794       -0.257363    
         (1,7,2)         (2,1,1)     1.85189         49.1664         48.7407       -0.788413    
         (1,6,3)         (2,1,1)     4.16675         48.7550         48.7407       -5.971255E-02
         (1,6,3)         (2,1,2)     4.16675         48.7550         48.6668       -0.367585    
         (1,6,3)         (2,1,3)     4.16675         48.7550         48.5917       -0.680531    
         (1,6,4)         (2,1,4)     4.16675         48.3692         48.3742        2.079435E-02
         (1,6,4)         (2,1,5)     4.16675         48.3692         48.2611       -0.450244    
         (1,6,4)         (2,1,6)     4.16675         48.3692         48.1585       -0.877732    
         (1,6,5)         (2,1,7)     4.16675         47.8172         47.8529        0.148778    
         (1,6,5)         (2,1,8)     4.16675         47.8172         47.7512       -0.275179    
         (1,6,5)         (2,1,9)     4.16675         47.8172         47.6478       -0.706108    
         (1,6,6)        (2,1,10)     4.16675         47.3261         47.3404        5.978019E-02
         (1,6,6)        (2,1,11)     4.16675         47.3261         47.2195       -0.444277    
         (1,6,6)        (2,1,12)     4.16675         47.3261         47.1082       -0.907869    
         (1,6,7)        (2,1,13)     4.16675         46.9273         46.8935       -0.140921    
         (1,6,7)        (2,1,14)     4.16675         46.9273         46.8462       -0.337847    
         (1,6,7)        (2,1,15)     4.16675         46.9273         46.7930       -0.559857    
         (1,6,8)        (2,1,16)     4.16675         46.5940         46.6073        5.515491E-02
         (1,6,8)        (2,1,17)     4.16675         46.5940         46.5492       -0.186949    
         (1,7,9)        (2,1,18)     1.85189         46.2149         46.5012        0.530250    
         (1,6,8)        (2,1,18)     4.16675         46.5940         46.5012       -0.386875    
         (1,7,2)         (2,2,1)     1.85189         49.1664         48.7267       -0.814256    
         (1,7,9)        (2,2,18)     1.85189         46.2149         46.4771        0.485645    
         (1,7,2)         (2,3,1)     1.85189         49.1664         48.7056       -0.853317    
         (1,7,9)        (2,3,18)     1.85189         46.2149         46.4533        0.441597    
         (1,8,2)         (2,4,1)     1.85189         49.1204         48.6713       -0.831529    
         (1,8,9)        (2,4,18)     1.85189         46.1296         46.4136        0.525948    
         (1,8,2)         (2,5,1)     1.85189         49.1204         48.6504       -0.870322    
         (1,8,9)        (2,5,18)     1.85189         46.1296         46.3834        0.470087    
         (1,8,2)         (2,6,1)     1.85189         49.1204         48.6323       -0.903737    
         (1,8,9)        (2,6,18)     1.85189         46.1296         46.3410        0.391489    
         (1,9,2)         (2,7,1)     1.85189         49.0902         48.6075       -0.893788    
         (1,9,9)        (2,7,18)     1.85189         45.9960         46.2501        0.470397    
         (1,9,2)         (2,8,1)     1.85189         49.0902         48.5943       -0.918291    
         (1,9,9)        (2,8,18)     1.85189         45.9960         46.2829        0.531229    
         (1,9,2)         (2,9,1)     1.85189         49.0902         48.5865       -0.932737    
         (1,9,9)        (2,9,18)     1.85189         45.9960         46.2957        0.554885    
        (1,10,2)        (2,10,1)     1.85189         49.0786         48.5757       -0.931321    
        (1,10,9)       (2,10,18)     1.85189         46.0873         46.3074        0.407595    
        (1,10,2)        (2,11,1)     1.85189         49.0786         48.5709       -0.940332    
        (1,10,9)       (2,11,18)     1.85189         46.0873         46.3156        0.422743    
        (1,10,2)        (2,12,1)     1.85189         49.0786         48.5703       -0.941412    
[...]
         (3,9,6)        (6,7,11)     70.6439         47.1238         47.1291        0.368746    
         (3,9,6)        (6,7,12)     70.6439         47.1238         47.0761        -3.37423    
         (3,9,7)        (6,7,13)     70.6439         46.7029         46.7541         3.61269    
         (3,9,7)        (6,7,14)     70.6439         46.7029         46.7063        0.236433    
         (3,9,7)        (6,7,15)     70.6439         46.7029         46.6662        -2.59323    
         (3,9,8)        (6,7,16)     70.6439         46.3630         46.4047         2.94618    
         (3,9,8)        (6,7,17)     70.6439         46.3630         46.3592       -0.267263    
         (2,9,9)        (6,7,18)     1.85178         46.0212         46.3297        0.571222    
         (3,9,8)        (6,7,18)     70.6439         46.3630         46.3297        -2.35330    
         (2,9,2)         (6,8,1)     1.73278         49.0907         48.5422       -0.950515    
         (3,9,3)         (6,8,1)     70.6439         48.4914         48.5422         3.59197    
         (3,9,3)         (6,8,2)     70.6439         48.4914         48.4862       -0.364950    
         (3,9,3)         (6,8,3)     70.6439         48.4914         48.4306        -4.29448    
         (3,9,4)         (6,8,4)     70.6439         48.0256         48.0829         4.04629    
         (3,9,4)         (6,8,5)     70.6439         48.0256         48.0238       -0.130646    
         (3,9,4)         (6,8,6)     70.6439         48.0256         47.9681        -4.06088    
         (3,9,5)         (6,8,7)     70.6439         47.5818         47.6369         3.88689    
         (3,9,5)         (6,8,8)     70.6439         47.5818         47.5824        4.179676E-02
         (3,9,5)         (6,8,9)     70.6439         47.5818         47.5237        -4.10777    
         (3,9,6)        (6,8,10)     70.6439         47.1238         47.1742         3.55977    
         (3,9,6)        (6,8,11)     70.6439         47.1238         47.1224       -9.892563E-02
         (3,9,6)        (6,8,12)     70.6439         47.1238         47.0678        -3.96281    
         (3,9,7)        (6,8,13)     70.6439         46.7029         46.7411         2.69548    
         (3,9,7)        (6,8,14)     70.6439         46.7029         46.6987       -0.300201    
         (3,9,7)        (6,8,15)     70.6439         46.7029         46.6556        -3.34433    
         (3,9,8)        (6,8,16)     70.6439         46.3630         46.3876         1.73521    
         (3,9,8)        (6,8,17)     70.6439         46.3630         46.3547       -0.588650    
         (2,9,9)        (6,8,18)     1.85178         46.0212         46.3275        0.567050    
         (3,9,8)        (6,8,18)     70.6439         46.3630         46.3275        -2.51246    
         (2,9,2)         (6,9,1)     1.73278         49.0907         48.5372       -0.959119    
         (3,9,3)         (6,9,1)     70.6439         48.4914         48.5372         3.24118    
         (3,9,3)         (6,9,2)     70.6439         48.4914         48.4823       -0.641750    
         (3,9,3)         (6,9,3)     70.6439         48.4914         48.4230        -4.82721    
         (3,9,4)         (6,9,4)     70.6439         48.0256         48.0656         2.82133    
         (3,9,4)         (6,9,5)     70.6439         48.0256         48.0027        -1.61841    
         (3,9,4)         (6,9,6)     70.6439         48.0256         47.9503        -5.32284    
         (3,9,5)         (6,9,7)     70.6439         47.5818         47.6235         2.94555    
         (3,9,5)         (6,9,8)     70.6439         47.5818         47.5685       -0.943188    
         (3,9,5)         (6,9,9)     70.6439         47.5818         47.5062        -5.34492    
         (3,9,6)        (6,9,10)     70.6439         47.1238         47.1699         3.25497    
         (3,9,6)        (6,9,11)     70.6439         47.1238         47.1180       -0.409832    
         (3,9,6)        (6,9,12)     70.6439         47.1238         47.0623        -4.34445    
         (3,9,7)        (6,9,13)     70.6439         46.7029         46.7341         2.20159    
         (3,9,7)        (6,9,14)     70.6439         46.7029         46.6937       -0.649604    
         (3,9,7)        (6,9,15)     70.6439         46.7029         46.6503        -3.71512    
         (3,9,8)        (6,9,16)     70.6439         46.3630         46.3842         1.49330    
         (3,9,8)        (6,9,17)     70.6439         46.3630         46.3557       -0.517941    
         (2,9,9)        (6,9,18)     1.85178         46.0212         46.3310        0.573665    
         (3,9,8)        (6,9,18)     70.6439         46.3630         46.3310        -2.26011    
        (2,10,2)        (6,10,1)     1.73278         49.0792         48.5174       -0.973343    
        (3,10,3)        (6,10,1)     70.6439         48.4599         48.5174         4.06246    
        (3,10,3)        (6,10,2)     70.6439         48.4599         48.4624        0.173385    
        (3,10,3)        (6,10,3)     70.6439         48.4599         48.3989        -4.30995    
        (3,10,4)        (6,10,4)     70.6439         47.9519         48.0118         4.23247    
        (3,10,4)        (6,10,5)     70.6439         47.9519         47.9531        8.586133E-02
        (3,10,4)        (6,10,6)     70.6439         47.9519         47.9049        -3.32346    
        (3,10,5)        (6,10,7)     70.6439         47.5207         47.5824         4.36082    
        (3,10,5)        (6,10,8)     70.6439         47.5207         47.5267        0.426421    
        (3,10,5)        (6,10,9)     70.6439         47.5207         47.4659        -3.86906    
        (3,10,6)       (6,10,10)     70.6439         47.1017         47.1542         3.70853    
        (3,10,6)       (6,10,11)     70.6439         47.1017         47.1034        0.124715    
        (3,10,6)       (6,10,12)     70.6439         47.1017         47.0473        -3.84373    
        (3,10,7)       (6,10,13)     70.6439         46.6783         46.7170         2.73172    
        (3,10,7)       (6,10,14)     70.6439         46.6783         46.6775       -5.605811E-02
        (3,10,7)       (6,10,15)     70.6439         46.6783         46.6357        -3.00900    
        (3,10,8)       (6,10,16)     70.6439         46.3677         46.3873         1.38084    
        (3,10,8)       (6,10,17)     70.6439         46.3677         46.3583       -0.663147    
        (2,10,9)       (6,10,18)     1.85178         46.0881         46.3387        0.464098    
        (3,10,8)       (6,10,18)     70.6439         46.3677         46.3387        -2.05255    
        (2,10,2)        (6,11,1)     1.73278         49.0792         48.5142       -0.978987    
        (3,10,3)        (6,11,1)     70.6439         48.4599         48.5142         3.83234    
        (3,10,3)        (6,11,2)     70.6439         48.4599         48.4586       -9.240842E-02
        (3,10,3)        (6,11,3)     70.6439         48.4599         48.3924        -4.76782    
        (3,10,4)        (6,11,4)     70.6439         47.9519         47.9971         3.18999    
        (3,10,4)        (6,11,5)     70.6439         47.9519         47.9461       -0.410221    
        (3,10,4)        (6,11,6)     70.6439         47.9519         47.8971        -3.86861    
        (3,10,5)        (6,11,7)     70.6439         47.5207         47.5734         3.71973    
        (3,10,5)        (6,11,8)     70.6439         47.5207         47.5168       -0.274361    
        (3,10,5)        (6,11,9)     70.6439         47.5207         47.4603        -4.26592    
        (3,10,6)       (6,11,10)     70.6439         47.1017         47.1516         3.52659    
        (3,10,6)       (6,11,11)     70.6439         47.1017         47.1011       -3.921300E-02
        (3,10,6)       (6,11,12)     70.6439         47.1017         47.0446        -4.03016    
        (3,10,7)       (6,11,13)     70.6439         46.6783         46.7133         2.46823    
        (3,10,7)       (6,11,14)     70.6439         46.6783         46.6743       -0.282300    
        (3,10,7)       (6,11,15)     70.6439         46.6783         46.6340        -3.13403    
        (3,10,8)       (6,11,16)     70.6439         46.3677         46.3904         1.60124    
        (3,10,8)       (6,11,17)     70.6439         46.3677         46.3617       -0.423262    
        (2,10,9)       (6,11,18)     1.85178         46.0881         46.3425        0.471147    
        (3,10,8)       (6,11,18)     70.6439         46.3677         46.3425        -1.78362    
        (2,10,2)        (6,12,1)     1.73278         49.0792         48.5142       -0.979024    
        (3,10,3)        (6,12,1)     70.6439         48.4599         48.5142         3.83086    
        (3,10,3)        (6,12,2)     70.6439         48.4599         48.4584       -0.110258    
        (3,10,3)        (6,12,3)     70.6439         48.4599         48.3907        -4.88761    
        (3,10,4)        (6,12,4)     70.6439         47.9519         47.9908         2.74767    
        (3,10,4)        (6,12,5)     70.6439         47.9519         47.9419       -0.703846    
        (3,10,4)        (6,12,6)     70.6439         47.9519         47.8924        -4.20477    
        (3,10,5)        (6,12,7)     70.6439         47.5207         47.5678         3.32453    
        (3,10,5)        (6,12,8)     70.6439         47.5207         47.5099       -0.761819    
        (3,10,5)        (6,12,9)     70.6439         47.5207         47.4616        -4.17513    
        (3,10,6)       (6,12,10)     70.6439         47.1017         47.1528         3.61442    
        (3,10,6)       (6,12,11)     70.6439         47.1017         47.1022        3.870330E-02
        (3,10,6)       (6,12,12)     70.6439         47.1017         47.0456        -3.95890    
        (3,10,7)       (6,12,13)     70.6439         46.6783         46.7132         2.46111    
        (3,10,7)       (6,12,14)     70.6439         46.6783         46.6735       -0.339391    
        (3,10,7)       (6,12,15)     70.6439         46.6783         46.6344        -3.10680    
        (3,10,8)       (6,12,16)     70.6439         46.3677         46.3948         1.91457    
        (3,10,8)       (6,12,17)     70.6439         46.3677         46.3698        0.147804    
        (2,10,9)       (6,12,18)     1.85178         46.0881         46.3490        0.483221    
        (3,10,8)       (6,12,18)     70.6439         46.3677         46.3490        -1.32301    
        (2,11,2)        (6,13,1)     1.73278         49.0899         48.5197       -0.987996    
        (3,11,3)        (6,13,1)     70.6439         48.4687         48.5197         3.60126    
        (3,11,3)        (6,13,2)     70.6439         48.4687         48.4641       -0.321121    
        (3,11,3)        (6,13,3)     70.6439         48.4687         48.3958        -5.15170    
        (3,11,4)        (6,13,4)     70.6439         47.9343         47.9800         3.23341    
        (3,11,4)        (6,13,5)     70.6439         47.9343         47.9287       -0.394699    
        (3,11,4)        (6,13,6)     70.6439         47.9343         47.8790        -3.90104    
        (3,11,5)        (6,13,7)     70.6439         47.5147         47.5593         3.14852    
        (3,11,5)        (6,13,8)     70.6439         47.5147         47.5049       -0.691395    
        (3,11,5)        (6,13,9)     70.6439         47.5147         47.4618        -3.73563    
        (3,11,6)       (6,13,10)     70.6439         47.1158         47.1618         3.24649    
        (3,11,6)       (6,13,11)     70.6439         47.1158         47.1118       -0.283759    
        (3,11,6)       (6,13,12)     70.6439         47.1158         47.0561        -4.21681    
        (3,11,7)       (6,13,13)     70.6439         46.6943         46.7245         2.13002    
        (3,11,7)       (6,13,14)     70.6439         46.6943         46.6799        -1.01727    
        (3,11,7)       (6,13,15)     70.6439         46.6943         46.6423        -3.67313    
        (3,11,8)       (6,13,16)     70.6439         46.4069         46.4198        0.913199    
        (3,11,8)       (6,13,17)     70.6439         46.4069         46.3972       -0.686203    
        (2,11,9)       (6,13,18)     1.85178         46.1374         46.3767        0.443178    
        (3,11,8)       (6,13,18)     70.6439         46.4069         46.3767        -2.13314    
        (2,11,2)        (6,14,1)     1.73278         49.0899         48.5208       -0.986109    
        (3,11,3)        (6,14,1)     70.6439         48.4687         48.5208         3.67818    
        (3,11,3)        (6,14,2)     70.6439         48.4687         48.4676       -7.902888E-02
        (3,11,3)        (6,14,3)     70.6439         48.4687         48.4013        -4.76421    
        (3,11,4)        (6,14,4)     70.6439         47.9343         47.9819         3.36673    
        (3,11,4)        (6,14,5)     70.6439         47.9343         47.9233       -0.774477    
        (3,11,4)        (6,14,6)     70.6439         47.9343         47.8741        -4.24772    
        (3,11,5)        (6,14,7)     70.6439         47.5147         47.5534         2.73467    
        (3,11,5)        (6,14,8)     70.6439         47.5147         47.5097       -0.352144    
        (3,11,5)        (6,14,9)     70.6439         47.5147         47.4667        -3.39444    
        (3,11,6)       (6,14,10)     70.6439         47.1158         47.1641         3.41302    
        (3,11,6)       (6,14,11)     70.6439         47.1158         47.1156       -1.157501E-02
        (3,11,6)       (6,14,12)     70.6439         47.1158         47.0631        -3.72052    
        (3,11,7)       (6,14,13)     70.6439         46.6943         46.7352         2.88919    
        (3,11,7)       (6,14,14)     70.6439         46.6943         46.6790        -1.08334    
        (3,11,7)       (6,14,15)     70.6439         46.6943         46.6421        -3.68722    
        (3,11,8)       (6,14,16)     70.6439         46.4069         46.4283         1.50939    
        (3,11,8)       (6,14,17)     70.6439         46.4069         46.4052       -0.122192    
        (2,11,9)       (6,14,18)     1.85178         46.1374         46.3844        0.457428    
        (3,11,8)       (6,14,18)     70.6439         46.4069         46.3844        -1.58950    
        (2,11,2)        (6,15,1)     1.73278         49.0899         48.5212       -0.985398    
        (2,12,3)        (6,15,1)     4.16650         48.5372         48.5212       -6.692112E-02
        (3,11,3)        (6,15,1)     70.6439         48.4687         48.5212         3.70716    
        (2,12,3)        (6,15,2)     4.16650         48.5372         48.4753       -0.257970    
        (3,11,3)        (6,15,2)     70.6439         48.4687         48.4753        0.467887    
        (2,12,3)        (6,15,3)     4.16650         48.5372         48.4171       -0.500724    
        (3,11,3)        (6,15,3)     70.6439         48.4687         48.4171        -3.64806    
        (2,12,4)        (6,15,4)     4.16650         48.0040         47.9893       -6.132394E-02
        (3,11,4)        (6,15,4)     70.6439         47.9343         47.9893         3.88834    
        (2,12,4)        (6,15,5)     4.16650         48.0040         47.9239       -0.333801    
        (3,11,4)        (6,15,5)     70.6439         47.9343         47.9239       -0.731562    
        (2,12,4)        (6,15,6)     4.16650         48.0040         47.8782       -0.524302    
        (3,11,4)        (6,15,6)     70.6439         47.9343         47.8782        -3.96155    
        (2,12,5)        (6,15,7)     4.16650         47.5680         47.5559       -5.042214E-02
        (3,11,5)        (6,15,7)     70.6439         47.5147         47.5559         2.90597    
        (2,12,5)        (6,15,8)     4.16650         47.5680         47.5181       -0.207713    
        (3,11,5)        (6,15,8)     70.6439         47.5147         47.5181        0.239061    
        (2,12,5)        (6,15,9)     4.16650         47.5680         47.4781       -0.374343    
        (3,11,5)        (6,15,9)     70.6439         47.5147         47.4781        -2.58618    
        (2,12,6)       (6,15,10)     4.16650         47.1623         47.1647        1.006365E-02
        (3,11,6)       (6,15,10)     70.6439         47.1158         47.1647         3.45283    
        (2,12,6)       (6,15,11)     4.16650         47.1623         47.1214       -0.170449    
        (3,11,6)       (6,15,11)     70.6439         47.1158         47.1214        0.392192    
        (2,12,6)       (6,15,12)     4.16650         47.1623         47.0756       -0.361121    
        (3,11,6)       (6,15,12)     70.6439         47.1158         47.0756        -2.84068    
        (2,12,7)       (6,15,13)     4.16650         46.7698         46.7440       -0.107680    
        (3,11,7)       (6,15,13)     70.6439         46.6943         46.7440         3.50977    
        (2,12,7)       (6,15,14)     4.16650         46.7698         46.6964       -0.306128    
        (3,11,7)       (6,15,14)     70.6439         46.6943         46.6964        0.145042    
        (2,12,7)       (6,15,15)     4.16650         46.7698         46.6630       -0.445310    
        (3,11,7)       (6,15,15)     70.6439         46.6943         46.6630        -2.21481    
        (2,12,8)       (6,15,16)     4.16650         46.4559         46.4378       -7.536852E-02
        (3,11,8)       (6,15,16)     70.6439         46.4069         46.4378         2.18229    
        (2,12,8)       (6,15,17)     4.16650         46.4559         46.4130       -0.178644    
        (3,11,8)       (6,15,17)     70.6439         46.4069         46.4130        0.431230    
        (2,11,9)       (6,15,18)     1.85178         46.1374         46.3935        0.474344    
        (2,12,8)       (6,15,18)     4.16650         46.4559         46.3935       -0.259763    
        (3,11,8)       (6,15,18)     70.6439         46.4069         46.3935       -0.944163    


  WATER MOVER BUDGET FOR ENTIRE MODEL AT END OF TIME STEP    1, STRESS PERIOD   1
  ------------------------------------------------------------------------------

     CUMULATIVE WATER MOVER      L**3       RATES FOR THIS TIME STEP      L**3/T
     ------------------                 ------------------------

           IN:                                      IN:
           ---                                      ---
    GWF-LGR-PARENT/S =           8.4638      GWF-LGR-PARENT/S =           8.4638
    GWF-LGR-CHILD/SF =         150.5356      GWF-LGR-CHILD/SF =         150.5356

            TOTAL IN =         158.9994              TOTAL IN =         158.9994

          OUT:                                     OUT:
          ----                                     ----
    GWF-LGR-PARENT/S =         150.5356      GWF-LGR-PARENT/S =         150.5356
    GWF-LGR-CHILD/SF =           8.4638      GWF-LGR-CHILD/SF =           8.4638

           TOTAL OUT =         158.9994             TOTAL OUT =         158.9994

            IN - OUT =           0.0000              IN - OUT =           0.0000

 PERCENT DISCREPANCY =           0.00     PERCENT DISCREPANCY =           0.00


 MEMORY MANAGER TOTAL STORAGE BY DATA TYPE, IN MEGABYTES
 -------------------------------
                    ALLOCATED   
 DATA TYPE           MEMORY     
 -------------------------------
 Character        1.57470000E-02
 Logical          8.80000000E-05
 Integer          0.55776400    
 Real             1.2516720     
 -------------------------------
 Total            1.8252710     
 Virtual          0.0000000     
 -------------------------------


 
 Run end date and time (yyyy/mm/dd hh:mm:ss): 2025/05/26 15:48:19
 Elapsed run time:  0.316 Seconds
 Normal termination of simulation.
