                                   MODFLOW 6
                U.S. GEOLOGICAL SURVEY MODULAR HYDROLOGIC MODEL
                          GROUNDWATER FLOW MODEL (GWF)
                            VERSION 6.6.0 12/20/2024

   MODFLOW 6 compiled Dec 31 2024 17:10:16 with Intel(R) Fortran Intel(R) 64
   Compiler Classic for applications running on Intel(R) 64, Version 2021.7.0
                             Build 20220726_000000

This software has been approved for release by the U.S. Geological 
Survey (USGS). Although the software has been subjected to rigorous 
review, the USGS reserves the right to update the software as needed 
pursuant to further analysis and review. No warranty, expressed or 
implied, is made by the USGS or the U.S. Government as to the 
functionality of the software and related material nor shall the 
fact of release constitute any such warranty. Furthermore, the 
software is released on condition that neither the USGS nor the U.S. 
Government shall be held liable for any damages resulting from its 
authorized or unauthorized use. Also refer to the USGS Water 
Resources Software User Rights Notice for complete use, copyright, 
and distribution information.


As a work of the United States Government, this USGS product is 
in the public domain within the United States. You can copy, 
modify, distribute, and perform the work, even for commercial 
purposes, all without asking permission. Additionally, USGS 
waives copyright and related rights in the work worldwide 
through CC0 1.0 Universal Public Domain Dedication 
(https://creativecommons.org/publicdomain/zero/1.0/).

The following GNU Lesser General Public License (LGPL) libraries
are used in this USGS product:

    SPARSKIT version 2.0
      ilut, luson, and qsplit 
      (https://www-users.cse.umn.edu/~saad/software/SPARSKIT/)

    RCM - Reverse Cuthill McKee Ordering
      (https://people.math.sc.edu/Burkardt/f_src/rcm/rcm.html)

    BLAS - Basic Linear Algebra Subprograms Level 1
      (https://people.math.sc.edu/Burkardt/f_src/blas1_d/blas1_d.html)

    SPARSEKIT - Sparse Matrix Utility Package
      amux, dperm, dvperm, rperm, and cperm
      (https://people.sc.fsu.edu/~jburkardt/f77_src/sparsekit/sparsekit.html)

The following BSD-3 License libraries are used in this USGS product:

    Modern Fortran DAG Library
      Copyright (c) 2018, Jacob Williams
      All rights reserved.
      (https://github.com/jacobwilliams/daglib)

MODFLOW 6 compiler options: /O2 /heap-arrays:0 /fpe:0 /traceback /nologo /fpp
/c /module:win64\mod_mf6\ /object:win64\obj_mf6\

System command used to initiate simulation:
C:\Users\gross.DESKTOP-AIRQM2M\anaconda3\Scripts\mf6.exe

MODFLOW was compiled using uniform precision.

Real Variables
  KIND: 8
  TINY (smallest non-zero value):    2.225074-308
  HUGE (largest value):    1.797693+308
  PRECISION: 15
  SIZE IN BITS: 64

Integer Variables
  KIND: 4
  HUGE (largest value): 2147483647
  SIZE IN BITS: 32

Long Integer Variables
  KIND: 8
  HUGE (largest value): 9223372036854775807
  SIZE IN BITS: 64

Logical Variables
  KIND: 4
  SIZE IN BITS: 32
 
 NAMEFILE OPTIONS:
    FLOWS WILL BE SAVED TO BUDGET FILE SPECIFIED IN OUTPUT CONTROL
 END NAMEFILE OPTIONS:

 DIS -- STRUCTURED GRID DISCRETIZATION PACKAGE, VERSION 2 : 3/27/2014 - INPUT READ FROM MEMPATH: __INPUT__/FLOW/DIS                                


 NPF -- NODE PROPERTY FLOW PACKAGE, VERSION 1, 3/30/2015 INPUT READ FROM MEMPATH: __INPUT__/FLOW/NPF                                


 IC -- Initial Conditions Package, Version 8, 3/28/2015 input read from mempath: __INPUT__/FLOW/IC                                 


 Setting Discretization Options
    Model length unit [0=UND, 1=FEET, 2=METERS, 3=CENTIMETERS] set as 3
 End Setting Discretization Options

 Setting Discretization Dimensions
    NLAY = 1
    NROW = 1
    NCOL = 101
 End Setting Discretization Dimensions

 Setting Discretization Griddata
    DELR set from input file
    DELC set from input file
    TOP set from input file
    BOTM set from input file
 End Setting Discretization Griddata

 Setting NPF Options
    Specific discharge will be calculated at cell centers and written to DATA-SPDIS in budget file when requested.
    Saturation will be written to DATA-SAT in budget file when requested.
 End Setting NPF Options

 Setting NPF Griddata
    ICELLTYPE set from input file
    K set from input file
    K33 not provided.  Setting K33 = K.
    K22 not provided.  Setting K22 = K.
 End Setting NPF Griddata


 WEL   -- WEL PACKAGE, VERSION 8, 2/22/2014 INPUT READ FROM MEMPATH: __INPUT__/FLOW/WEL-1                              

 PROCESSING WEL BASE OPTIONS
 END OF WEL BASE OPTIONS

 PROCESSING WEL OPTIONS
 END OF WEL OPTIONS

 PROCESSING WEL BASE DIMENSIONS
    MAXBOUND =       1
 END OF WEL BASE DIMENSIONS

 CHD   -- CHD PACKAGE, VERSION 8, 2/22/2014 INPUT READ FROM MEMPATH: __INPUT__/FLOW/CHD_0                              

 PROCESSING CHD BASE OPTIONS
 END OF CHD BASE OPTIONS

 PROCESSING CHD BASE DIMENSIONS
    MAXBOUND =       1
 END OF CHD BASE DIMENSIONS
    STRT set from input file
    BINARY GRID INFORMATION WILL BE WRITTEN TO:
      UNIT NUMBER: 1012
      FILE NAME: flow.dis.grb

 OPENED flow.dis.grb
 FILE TYPE:DATA(BINARY)   UNIT 1012   STATUS:REPLACE             
 FORMAT:UNFORMATTED            ACCESS:STREAM              
 ACTION:READWRITE           

      THE LAST TIME STEP WILL BE PRINTED
      THE LAST TIME STEP WILL BE PRINTED
 # File generated by Flopy version 3.9.1 on 02/17/2025 at 08:26:36.

 PROCESSING OC OPTIONS

    BUDGET INFORMATION WILL BE WRITTEN TO:
      UNIT NUMBER: 1013
      FILE NAME: flow.bud

 OPENED flow.bud
 FILE TYPE:DATA(BINARY)   UNIT 1013   STATUS:REPLACE             
 FORMAT:UNFORMATTED            ACCESS:STREAM              
 ACTION:READWRITE           

    HEAD INFORMATION WILL BE WRITTEN TO:
      UNIT NUMBER: 1014
      FILE NAME: flow.hds

 OPENED flow.hds
 FILE TYPE:DATA(BINARY)   UNIT 1014   STATUS:REPLACE             
 FORMAT:UNFORMATTED            ACCESS:STREAM              
 ACTION:READWRITE           

 END OF OC OPTIONS

start timestep kper="1" kstp="1" mode="normal"


 BEGIN READING OUTPUT CONTROL FOR STRESS PERIOD 1
      ALL TIME STEPS WILL BE SAVED
      ALL TIME STEPS WILL BE SAVED

 END READING OUTPUT CONTROL FOR STRESS PERIOD 1
 UBDSV1 SAVING     FLOW-JA-FACE ON UNIT   1013 AT TIME STEP      1, STRESS PERIOD      1
 UBDSV06 SAVING       DATA-SPDIS IN MODEL FLOW             PACKAGE NPF             CONNECTED TO MODEL FLOW             PACKAGE NPF              ON UNIT   1013 AT TIME STEP      1, STRESS PERIOD      1
 UBDSV06 SAVING         DATA-SAT IN MODEL FLOW             PACKAGE NPF             CONNECTED TO MODEL FLOW             PACKAGE NPF              ON UNIT   1013 AT TIME STEP      1, STRESS PERIOD      1
 UBDSV06 SAVING              WEL IN MODEL FLOW             PACKAGE FLOW            CONNECTED TO MODEL FLOW             PACKAGE WEL-1            ON UNIT   1013 AT TIME STEP      1, STRESS PERIOD      1
 UBDSV06 SAVING              CHD IN MODEL FLOW             PACKAGE FLOW            CONNECTED TO MODEL FLOW             PACKAGE CHD_0            ON UNIT   1013 AT TIME STEP      1, STRESS PERIOD      1

 HEAD WILL BE SAVED ON UNIT 1014 AT END OF TIME STEP    1, STRESS PERIOD    1

end timestep


start timestep kper="1" kstp="2" mode="normal"

 UBDSV1 SAVING     FLOW-JA-FACE ON UNIT   1013 AT TIME STEP      2, STRESS PERIOD      1
 UBDSV06 SAVING       DATA-SPDIS IN MODEL FLOW             PACKAGE NPF             CONNECTED TO MODEL FLOW             PACKAGE NPF              ON UNIT   1013 AT TIME STEP      2, STRESS PERIOD      1
 UBDSV06 SAVING         DATA-SAT IN MODEL FLOW             PACKAGE NPF             CONNECTED TO MODEL FLOW             PACKAGE NPF              ON UNIT   1013 AT TIME STEP      2, STRESS PERIOD      1
 UBDSV06 SAVING              WEL IN MODEL FLOW             PACKAGE FLOW            CONNECTED TO MODEL FLOW             PACKAGE WEL-1            ON UNIT   1013 AT TIME STEP      2, STRESS PERIOD      1
 UBDSV06 SAVING              CHD IN MODEL FLOW             PACKAGE FLOW            CONNECTED TO MODEL FLOW             PACKAGE CHD_0            ON UNIT   1013 AT TIME STEP      2, STRESS PERIOD      1

 HEAD WILL BE SAVED ON UNIT 1014 AT END OF TIME STEP    2, STRESS PERIOD    1

end timestep


start timestep kper="1" kstp="3" mode="normal"

 UBDSV1 SAVING     FLOW-JA-FACE ON UNIT   1013 AT TIME STEP      3, STRESS PERIOD      1
 UBDSV06 SAVING       DATA-SPDIS IN MODEL FLOW             PACKAGE NPF             CONNECTED TO MODEL FLOW             PACKAGE NPF              ON UNIT   1013 AT TIME STEP      3, STRESS PERIOD      1
 UBDSV06 SAVING         DATA-SAT IN MODEL FLOW             PACKAGE NPF             CONNECTED TO MODEL FLOW             PACKAGE NPF              ON UNIT   1013 AT TIME STEP      3, STRESS PERIOD      1
 UBDSV06 SAVING              WEL IN MODEL FLOW             PACKAGE FLOW            CONNECTED TO MODEL FLOW             PACKAGE WEL-1            ON UNIT   1013 AT TIME STEP      3, STRESS PERIOD      1
 UBDSV06 SAVING              CHD IN MODEL FLOW             PACKAGE FLOW            CONNECTED TO MODEL FLOW             PACKAGE CHD_0            ON UNIT   1013 AT TIME STEP      3, STRESS PERIOD      1

 HEAD WILL BE SAVED ON UNIT 1014 AT END OF TIME STEP    3, STRESS PERIOD    1

end timestep


start timestep kper="1" kstp="4" mode="normal"

 UBDSV1 SAVING     FLOW-JA-FACE ON UNIT   1013 AT TIME STEP      4, STRESS PERIOD      1
 UBDSV06 SAVING       DATA-SPDIS IN MODEL FLOW             PACKAGE NPF             CONNECTED TO MODEL FLOW             PACKAGE NPF              ON UNIT   1013 AT TIME STEP      4, STRESS PERIOD      1
 UBDSV06 SAVING         DATA-SAT IN MODEL FLOW             PACKAGE NPF             CONNECTED TO MODEL FLOW             PACKAGE NPF              ON UNIT   1013 AT TIME STEP      4, STRESS PERIOD      1
 UBDSV06 SAVING              WEL IN MODEL FLOW             PACKAGE FLOW            CONNECTED TO MODEL FLOW             PACKAGE WEL-1            ON UNIT   1013 AT TIME STEP      4, STRESS PERIOD      1
 UBDSV06 SAVING              CHD IN MODEL FLOW             PACKAGE FLOW            CONNECTED TO MODEL FLOW             PACKAGE CHD_0            ON UNIT   1013 AT TIME STEP      4, STRESS PERIOD      1

 HEAD WILL BE SAVED ON UNIT 1014 AT END OF TIME STEP    4, STRESS PERIOD    1

end timestep


start timestep kper="1" kstp="5" mode="normal"

 UBDSV1 SAVING     FLOW-JA-FACE ON UNIT   1013 AT TIME STEP      5, STRESS PERIOD      1
 UBDSV06 SAVING       DATA-SPDIS IN MODEL FLOW             PACKAGE NPF             CONNECTED TO MODEL FLOW             PACKAGE NPF              ON UNIT   1013 AT TIME STEP      5, STRESS PERIOD      1
 UBDSV06 SAVING         DATA-SAT IN MODEL FLOW             PACKAGE NPF             CONNECTED TO MODEL FLOW             PACKAGE NPF              ON UNIT   1013 AT TIME STEP      5, STRESS PERIOD      1
 UBDSV06 SAVING              WEL IN MODEL FLOW             PACKAGE FLOW            CONNECTED TO MODEL FLOW             PACKAGE WEL-1            ON UNIT   1013 AT TIME STEP      5, STRESS PERIOD      1
 UBDSV06 SAVING              CHD IN MODEL FLOW             PACKAGE FLOW            CONNECTED TO MODEL FLOW             PACKAGE CHD_0            ON UNIT   1013 AT TIME STEP      5, STRESS PERIOD      1

 HEAD WILL BE SAVED ON UNIT 1014 AT END OF TIME STEP    5, STRESS PERIOD    1

end timestep


start timestep kper="1" kstp="6" mode="normal"

 UBDSV1 SAVING     FLOW-JA-FACE ON UNIT   1013 AT TIME STEP      6, STRESS PERIOD      1
 UBDSV06 SAVING       DATA-SPDIS IN MODEL FLOW             PACKAGE NPF             CONNECTED TO MODEL FLOW             PACKAGE NPF              ON UNIT   1013 AT TIME STEP      6, STRESS PERIOD      1
 UBDSV06 SAVING         DATA-SAT IN MODEL FLOW             PACKAGE NPF             CONNECTED TO MODEL FLOW             PACKAGE NPF              ON UNIT   1013 AT TIME STEP      6, STRESS PERIOD      1
 UBDSV06 SAVING              WEL IN MODEL FLOW             PACKAGE FLOW            CONNECTED TO MODEL FLOW             PACKAGE WEL-1            ON UNIT   1013 AT TIME STEP      6, STRESS PERIOD      1
 UBDSV06 SAVING              CHD IN MODEL FLOW             PACKAGE FLOW            CONNECTED TO MODEL FLOW             PACKAGE CHD_0            ON UNIT   1013 AT TIME STEP      6, STRESS PERIOD      1

 HEAD WILL BE SAVED ON UNIT 1014 AT END OF TIME STEP    6, STRESS PERIOD    1

end timestep


start timestep kper="1" kstp="7" mode="normal"

 UBDSV1 SAVING     FLOW-JA-FACE ON UNIT   1013 AT TIME STEP      7, STRESS PERIOD      1
 UBDSV06 SAVING       DATA-SPDIS IN MODEL FLOW             PACKAGE NPF             CONNECTED TO MODEL FLOW             PACKAGE NPF              ON UNIT   1013 AT TIME STEP      7, STRESS PERIOD      1
 UBDSV06 SAVING         DATA-SAT IN MODEL FLOW             PACKAGE NPF             CONNECTED TO MODEL FLOW             PACKAGE NPF              ON UNIT   1013 AT TIME STEP      7, STRESS PERIOD      1
 UBDSV06 SAVING              WEL IN MODEL FLOW             PACKAGE FLOW            CONNECTED TO MODEL FLOW             PACKAGE WEL-1            ON UNIT   1013 AT TIME STEP      7, STRESS PERIOD      1
 UBDSV06 SAVING              CHD IN MODEL FLOW             PACKAGE FLOW            CONNECTED TO MODEL FLOW             PACKAGE CHD_0            ON UNIT   1013 AT TIME STEP      7, STRESS PERIOD      1

 HEAD WILL BE SAVED ON UNIT 1014 AT END OF TIME STEP    7, STRESS PERIOD    1

end timestep


start timestep kper="1" kstp="8" mode="normal"

 UBDSV1 SAVING     FLOW-JA-FACE ON UNIT   1013 AT TIME STEP      8, STRESS PERIOD      1
 UBDSV06 SAVING       DATA-SPDIS IN MODEL FLOW             PACKAGE NPF             CONNECTED TO MODEL FLOW             PACKAGE NPF              ON UNIT   1013 AT TIME STEP      8, STRESS PERIOD      1
 UBDSV06 SAVING         DATA-SAT IN MODEL FLOW             PACKAGE NPF             CONNECTED TO MODEL FLOW             PACKAGE NPF              ON UNIT   1013 AT TIME STEP      8, STRESS PERIOD      1
 UBDSV06 SAVING              WEL IN MODEL FLOW             PACKAGE FLOW            CONNECTED TO MODEL FLOW             PACKAGE WEL-1            ON UNIT   1013 AT TIME STEP      8, STRESS PERIOD      1
 UBDSV06 SAVING              CHD IN MODEL FLOW             PACKAGE FLOW            CONNECTED TO MODEL FLOW             PACKAGE CHD_0            ON UNIT   1013 AT TIME STEP      8, STRESS PERIOD      1

 HEAD WILL BE SAVED ON UNIT 1014 AT END OF TIME STEP    8, STRESS PERIOD    1

end timestep


start timestep kper="1" kstp="9" mode="normal"

 UBDSV1 SAVING     FLOW-JA-FACE ON UNIT   1013 AT TIME STEP      9, STRESS PERIOD      1
 UBDSV06 SAVING       DATA-SPDIS IN MODEL FLOW             PACKAGE NPF             CONNECTED TO MODEL FLOW             PACKAGE NPF              ON UNIT   1013 AT TIME STEP      9, STRESS PERIOD      1
 UBDSV06 SAVING         DATA-SAT IN MODEL FLOW             PACKAGE NPF             CONNECTED TO MODEL FLOW             PACKAGE NPF              ON UNIT   1013 AT TIME STEP      9, STRESS PERIOD      1
 UBDSV06 SAVING              WEL IN MODEL FLOW             PACKAGE FLOW            CONNECTED TO MODEL FLOW             PACKAGE WEL-1            ON UNIT   1013 AT TIME STEP      9, STRESS PERIOD      1
 UBDSV06 SAVING              CHD IN MODEL FLOW             PACKAGE FLOW            CONNECTED TO MODEL FLOW             PACKAGE CHD_0            ON UNIT   1013 AT TIME STEP      9, STRESS PERIOD      1

 HEAD WILL BE SAVED ON UNIT 1014 AT END OF TIME STEP    9, STRESS PERIOD    1

end timestep


start timestep kper="1" kstp="10" mode="normal"

 UBDSV1 SAVING     FLOW-JA-FACE ON UNIT   1013 AT TIME STEP     10, STRESS PERIOD      1
 UBDSV06 SAVING       DATA-SPDIS IN MODEL FLOW             PACKAGE NPF             CONNECTED TO MODEL FLOW             PACKAGE NPF              ON UNIT   1013 AT TIME STEP     10, STRESS PERIOD      1
 UBDSV06 SAVING         DATA-SAT IN MODEL FLOW             PACKAGE NPF             CONNECTED TO MODEL FLOW             PACKAGE NPF              ON UNIT   1013 AT TIME STEP     10, STRESS PERIOD      1
 UBDSV06 SAVING              WEL IN MODEL FLOW             PACKAGE FLOW            CONNECTED TO MODEL FLOW             PACKAGE WEL-1            ON UNIT   1013 AT TIME STEP     10, STRESS PERIOD      1
 UBDSV06 SAVING              CHD IN MODEL FLOW             PACKAGE FLOW            CONNECTED TO MODEL FLOW             PACKAGE CHD_0            ON UNIT   1013 AT TIME STEP     10, STRESS PERIOD      1

 HEAD WILL BE SAVED ON UNIT 1014 AT END OF TIME STEP   10, STRESS PERIOD    1

end timestep


start timestep kper="1" kstp="11" mode="normal"

 UBDSV1 SAVING     FLOW-JA-FACE ON UNIT   1013 AT TIME STEP     11, STRESS PERIOD      1
 UBDSV06 SAVING       DATA-SPDIS IN MODEL FLOW             PACKAGE NPF             CONNECTED TO MODEL FLOW             PACKAGE NPF              ON UNIT   1013 AT TIME STEP     11, STRESS PERIOD      1
 UBDSV06 SAVING         DATA-SAT IN MODEL FLOW             PACKAGE NPF             CONNECTED TO MODEL FLOW             PACKAGE NPF              ON UNIT   1013 AT TIME STEP     11, STRESS PERIOD      1
 UBDSV06 SAVING              WEL IN MODEL FLOW             PACKAGE FLOW            CONNECTED TO MODEL FLOW             PACKAGE WEL-1            ON UNIT   1013 AT TIME STEP     11, STRESS PERIOD      1
 UBDSV06 SAVING              CHD IN MODEL FLOW             PACKAGE FLOW            CONNECTED TO MODEL FLOW             PACKAGE CHD_0            ON UNIT   1013 AT TIME STEP     11, STRESS PERIOD      1

 HEAD WILL BE SAVED ON UNIT 1014 AT END OF TIME STEP   11, STRESS PERIOD    1

end timestep


start timestep kper="1" kstp="12" mode="normal"

 UBDSV1 SAVING     FLOW-JA-FACE ON UNIT   1013 AT TIME STEP     12, STRESS PERIOD      1
 UBDSV06 SAVING       DATA-SPDIS IN MODEL FLOW             PACKAGE NPF             CONNECTED TO MODEL FLOW             PACKAGE NPF              ON UNIT   1013 AT TIME STEP     12, STRESS PERIOD      1
 UBDSV06 SAVING         DATA-SAT IN MODEL FLOW             PACKAGE NPF             CONNECTED TO MODEL FLOW             PACKAGE NPF              ON UNIT   1013 AT TIME STEP     12, STRESS PERIOD      1
 UBDSV06 SAVING              WEL IN MODEL FLOW             PACKAGE FLOW            CONNECTED TO MODEL FLOW             PACKAGE WEL-1            ON UNIT   1013 AT TIME STEP     12, STRESS PERIOD      1
 UBDSV06 SAVING              CHD IN MODEL FLOW             PACKAGE FLOW            CONNECTED TO MODEL FLOW             PACKAGE CHD_0            ON UNIT   1013 AT TIME STEP     12, STRESS PERIOD      1

 HEAD WILL BE SAVED ON UNIT 1014 AT END OF TIME STEP   12, STRESS PERIOD    1

end timestep


start timestep kper="1" kstp="13" mode="normal"

 UBDSV1 SAVING     FLOW-JA-FACE ON UNIT   1013 AT TIME STEP     13, STRESS PERIOD      1
 UBDSV06 SAVING       DATA-SPDIS IN MODEL FLOW             PACKAGE NPF             CONNECTED TO MODEL FLOW             PACKAGE NPF              ON UNIT   1013 AT TIME STEP     13, STRESS PERIOD      1
 UBDSV06 SAVING         DATA-SAT IN MODEL FLOW             PACKAGE NPF             CONNECTED TO MODEL FLOW             PACKAGE NPF              ON UNIT   1013 AT TIME STEP     13, STRESS PERIOD      1
 UBDSV06 SAVING              WEL IN MODEL FLOW             PACKAGE FLOW            CONNECTED TO MODEL FLOW             PACKAGE WEL-1            ON UNIT   1013 AT TIME STEP     13, STRESS PERIOD      1
 UBDSV06 SAVING              CHD IN MODEL FLOW             PACKAGE FLOW            CONNECTED TO MODEL FLOW             PACKAGE CHD_0            ON UNIT   1013 AT TIME STEP     13, STRESS PERIOD      1

 HEAD WILL BE SAVED ON UNIT 1014 AT END OF TIME STEP   13, STRESS PERIOD    1

end timestep


start timestep kper="1" kstp="14" mode="normal"

 UBDSV1 SAVING     FLOW-JA-FACE ON UNIT   1013 AT TIME STEP     14, STRESS PERIOD      1
 UBDSV06 SAVING       DATA-SPDIS IN MODEL FLOW             PACKAGE NPF             CONNECTED TO MODEL FLOW             PACKAGE NPF              ON UNIT   1013 AT TIME STEP     14, STRESS PERIOD      1
 UBDSV06 SAVING         DATA-SAT IN MODEL FLOW             PACKAGE NPF             CONNECTED TO MODEL FLOW             PACKAGE NPF              ON UNIT   1013 AT TIME STEP     14, STRESS PERIOD      1
 UBDSV06 SAVING              WEL IN MODEL FLOW             PACKAGE FLOW            CONNECTED TO MODEL FLOW             PACKAGE WEL-1            ON UNIT   1013 AT TIME STEP     14, STRESS PERIOD      1
 UBDSV06 SAVING              CHD IN MODEL FLOW             PACKAGE FLOW            CONNECTED TO MODEL FLOW             PACKAGE CHD_0            ON UNIT   1013 AT TIME STEP     14, STRESS PERIOD      1

 HEAD WILL BE SAVED ON UNIT 1014 AT END OF TIME STEP   14, STRESS PERIOD    1

end timestep


start timestep kper="1" kstp="15" mode="normal"

 UBDSV1 SAVING     FLOW-JA-FACE ON UNIT   1013 AT TIME STEP     15, STRESS PERIOD      1
 UBDSV06 SAVING       DATA-SPDIS IN MODEL FLOW             PACKAGE NPF             CONNECTED TO MODEL FLOW             PACKAGE NPF              ON UNIT   1013 AT TIME STEP     15, STRESS PERIOD      1
 UBDSV06 SAVING         DATA-SAT IN MODEL FLOW             PACKAGE NPF             CONNECTED TO MODEL FLOW             PACKAGE NPF              ON UNIT   1013 AT TIME STEP     15, STRESS PERIOD      1
 UBDSV06 SAVING              WEL IN MODEL FLOW             PACKAGE FLOW            CONNECTED TO MODEL FLOW             PACKAGE WEL-1            ON UNIT   1013 AT TIME STEP     15, STRESS PERIOD      1
 UBDSV06 SAVING              CHD IN MODEL FLOW             PACKAGE FLOW            CONNECTED TO MODEL FLOW             PACKAGE CHD_0            ON UNIT   1013 AT TIME STEP     15, STRESS PERIOD      1

 HEAD WILL BE SAVED ON UNIT 1014 AT END OF TIME STEP   15, STRESS PERIOD    1

end timestep


start timestep kper="1" kstp="16" mode="normal"

 UBDSV1 SAVING     FLOW-JA-FACE ON UNIT   1013 AT TIME STEP     16, STRESS PERIOD      1
 UBDSV06 SAVING       DATA-SPDIS IN MODEL FLOW             PACKAGE NPF             CONNECTED TO MODEL FLOW             PACKAGE NPF              ON UNIT   1013 AT TIME STEP     16, STRESS PERIOD      1
 UBDSV06 SAVING         DATA-SAT IN MODEL FLOW             PACKAGE NPF             CONNECTED TO MODEL FLOW             PACKAGE NPF              ON UNIT   1013 AT TIME STEP     16, STRESS PERIOD      1
 UBDSV06 SAVING              WEL IN MODEL FLOW             PACKAGE FLOW            CONNECTED TO MODEL FLOW             PACKAGE WEL-1            ON UNIT   1013 AT TIME STEP     16, STRESS PERIOD      1
 UBDSV06 SAVING              CHD IN MODEL FLOW             PACKAGE FLOW            CONNECTED TO MODEL FLOW             PACKAGE CHD_0            ON UNIT   1013 AT TIME STEP     16, STRESS PERIOD      1

 HEAD WILL BE SAVED ON UNIT 1014 AT END OF TIME STEP   16, STRESS PERIOD    1

end timestep


start timestep kper="1" kstp="17" mode="normal"

 UBDSV1 SAVING     FLOW-JA-FACE ON UNIT   1013 AT TIME STEP     17, STRESS PERIOD      1
 UBDSV06 SAVING       DATA-SPDIS IN MODEL FLOW             PACKAGE NPF             CONNECTED TO MODEL FLOW             PACKAGE NPF              ON UNIT   1013 AT TIME STEP     17, STRESS PERIOD      1
 UBDSV06 SAVING         DATA-SAT IN MODEL FLOW             PACKAGE NPF             CONNECTED TO MODEL FLOW             PACKAGE NPF              ON UNIT   1013 AT TIME STEP     17, STRESS PERIOD      1
 UBDSV06 SAVING              WEL IN MODEL FLOW             PACKAGE FLOW            CONNECTED TO MODEL FLOW             PACKAGE WEL-1            ON UNIT   1013 AT TIME STEP     17, STRESS PERIOD      1
 UBDSV06 SAVING              CHD IN MODEL FLOW             PACKAGE FLOW            CONNECTED TO MODEL FLOW             PACKAGE CHD_0            ON UNIT   1013 AT TIME STEP     17, STRESS PERIOD      1

 HEAD WILL BE SAVED ON UNIT 1014 AT END OF TIME STEP   17, STRESS PERIOD    1

end timestep


start timestep kper="1" kstp="18" mode="normal"

 UBDSV1 SAVING     FLOW-JA-FACE ON UNIT   1013 AT TIME STEP     18, STRESS PERIOD      1
 UBDSV06 SAVING       DATA-SPDIS IN MODEL FLOW             PACKAGE NPF             CONNECTED TO MODEL FLOW             PACKAGE NPF              ON UNIT   1013 AT TIME STEP     18, STRESS PERIOD      1
 UBDSV06 SAVING         DATA-SAT IN MODEL FLOW             PACKAGE NPF             CONNECTED TO MODEL FLOW             PACKAGE NPF              ON UNIT   1013 AT TIME STEP     18, STRESS PERIOD      1
 UBDSV06 SAVING              WEL IN MODEL FLOW             PACKAGE FLOW            CONNECTED TO MODEL FLOW             PACKAGE WEL-1            ON UNIT   1013 AT TIME STEP     18, STRESS PERIOD      1
 UBDSV06 SAVING              CHD IN MODEL FLOW             PACKAGE FLOW            CONNECTED TO MODEL FLOW             PACKAGE CHD_0            ON UNIT   1013 AT TIME STEP     18, STRESS PERIOD      1

 HEAD WILL BE SAVED ON UNIT 1014 AT END OF TIME STEP   18, STRESS PERIOD    1

end timestep


start timestep kper="1" kstp="19" mode="normal"

 UBDSV1 SAVING     FLOW-JA-FACE ON UNIT   1013 AT TIME STEP     19, STRESS PERIOD      1
 UBDSV06 SAVING       DATA-SPDIS IN MODEL FLOW             PACKAGE NPF             CONNECTED TO MODEL FLOW             PACKAGE NPF              ON UNIT   1013 AT TIME STEP     19, STRESS PERIOD      1
 UBDSV06 SAVING         DATA-SAT IN MODEL FLOW             PACKAGE NPF             CONNECTED TO MODEL FLOW             PACKAGE NPF              ON UNIT   1013 AT TIME STEP     19, STRESS PERIOD      1
 UBDSV06 SAVING              WEL IN MODEL FLOW             PACKAGE FLOW            CONNECTED TO MODEL FLOW             PACKAGE WEL-1            ON UNIT   1013 AT TIME STEP     19, STRESS PERIOD      1
 UBDSV06 SAVING              CHD IN MODEL FLOW             PACKAGE FLOW            CONNECTED TO MODEL FLOW             PACKAGE CHD_0            ON UNIT   1013 AT TIME STEP     19, STRESS PERIOD      1

 HEAD WILL BE SAVED ON UNIT 1014 AT END OF TIME STEP   19, STRESS PERIOD    1

end timestep


start timestep kper="1" kstp="20" mode="normal"

 UBDSV1 SAVING     FLOW-JA-FACE ON UNIT   1013 AT TIME STEP     20, STRESS PERIOD      1
 UBDSV06 SAVING       DATA-SPDIS IN MODEL FLOW             PACKAGE NPF             CONNECTED TO MODEL FLOW             PACKAGE NPF              ON UNIT   1013 AT TIME STEP     20, STRESS PERIOD      1
 UBDSV06 SAVING         DATA-SAT IN MODEL FLOW             PACKAGE NPF             CONNECTED TO MODEL FLOW             PACKAGE NPF              ON UNIT   1013 AT TIME STEP     20, STRESS PERIOD      1
 UBDSV06 SAVING              WEL IN MODEL FLOW             PACKAGE FLOW            CONNECTED TO MODEL FLOW             PACKAGE WEL-1            ON UNIT   1013 AT TIME STEP     20, STRESS PERIOD      1
 UBDSV06 SAVING              CHD IN MODEL FLOW             PACKAGE FLOW            CONNECTED TO MODEL FLOW             PACKAGE CHD_0            ON UNIT   1013 AT TIME STEP     20, STRESS PERIOD      1

 HEAD WILL BE SAVED ON UNIT 1014 AT END OF TIME STEP   20, STRESS PERIOD    1

end timestep


start timestep kper="1" kstp="21" mode="normal"

 UBDSV1 SAVING     FLOW-JA-FACE ON UNIT   1013 AT TIME STEP     21, STRESS PERIOD      1
 UBDSV06 SAVING       DATA-SPDIS IN MODEL FLOW             PACKAGE NPF             CONNECTED TO MODEL FLOW             PACKAGE NPF              ON UNIT   1013 AT TIME STEP     21, STRESS PERIOD      1
 UBDSV06 SAVING         DATA-SAT IN MODEL FLOW             PACKAGE NPF             CONNECTED TO MODEL FLOW             PACKAGE NPF              ON UNIT   1013 AT TIME STEP     21, STRESS PERIOD      1
 UBDSV06 SAVING              WEL IN MODEL FLOW             PACKAGE FLOW            CONNECTED TO MODEL FLOW             PACKAGE WEL-1            ON UNIT   1013 AT TIME STEP     21, STRESS PERIOD      1
 UBDSV06 SAVING              CHD IN MODEL FLOW             PACKAGE FLOW            CONNECTED TO MODEL FLOW             PACKAGE CHD_0            ON UNIT   1013 AT TIME STEP     21, STRESS PERIOD      1

 HEAD WILL BE SAVED ON UNIT 1014 AT END OF TIME STEP   21, STRESS PERIOD    1

end timestep


start timestep kper="1" kstp="22" mode="normal"

 UBDSV1 SAVING     FLOW-JA-FACE ON UNIT   1013 AT TIME STEP     22, STRESS PERIOD      1
 UBDSV06 SAVING       DATA-SPDIS IN MODEL FLOW             PACKAGE NPF             CONNECTED TO MODEL FLOW             PACKAGE NPF              ON UNIT   1013 AT TIME STEP     22, STRESS PERIOD      1
 UBDSV06 SAVING         DATA-SAT IN MODEL FLOW             PACKAGE NPF             CONNECTED TO MODEL FLOW             PACKAGE NPF              ON UNIT   1013 AT TIME STEP     22, STRESS PERIOD      1
 UBDSV06 SAVING              WEL IN MODEL FLOW             PACKAGE FLOW            CONNECTED TO MODEL FLOW             PACKAGE WEL-1            ON UNIT   1013 AT TIME STEP     22, STRESS PERIOD      1
 UBDSV06 SAVING              CHD IN MODEL FLOW             PACKAGE FLOW            CONNECTED TO MODEL FLOW             PACKAGE CHD_0            ON UNIT   1013 AT TIME STEP     22, STRESS PERIOD      1

 HEAD WILL BE SAVED ON UNIT 1014 AT END OF TIME STEP   22, STRESS PERIOD    1

end timestep


start timestep kper="1" kstp="23" mode="normal"

 UBDSV1 SAVING     FLOW-JA-FACE ON UNIT   1013 AT TIME STEP     23, STRESS PERIOD      1
 UBDSV06 SAVING       DATA-SPDIS IN MODEL FLOW             PACKAGE NPF             CONNECTED TO MODEL FLOW             PACKAGE NPF              ON UNIT   1013 AT TIME STEP     23, STRESS PERIOD      1
 UBDSV06 SAVING         DATA-SAT IN MODEL FLOW             PACKAGE NPF             CONNECTED TO MODEL FLOW             PACKAGE NPF              ON UNIT   1013 AT TIME STEP     23, STRESS PERIOD      1
 UBDSV06 SAVING              WEL IN MODEL FLOW             PACKAGE FLOW            CONNECTED TO MODEL FLOW             PACKAGE WEL-1            ON UNIT   1013 AT TIME STEP     23, STRESS PERIOD      1
 UBDSV06 SAVING              CHD IN MODEL FLOW             PACKAGE FLOW            CONNECTED TO MODEL FLOW             PACKAGE CHD_0            ON UNIT   1013 AT TIME STEP     23, STRESS PERIOD      1

 HEAD WILL BE SAVED ON UNIT 1014 AT END OF TIME STEP   23, STRESS PERIOD    1

end timestep


start timestep kper="1" kstp="24" mode="normal"

 UBDSV1 SAVING     FLOW-JA-FACE ON UNIT   1013 AT TIME STEP     24, STRESS PERIOD      1
 UBDSV06 SAVING       DATA-SPDIS IN MODEL FLOW             PACKAGE NPF             CONNECTED TO MODEL FLOW             PACKAGE NPF              ON UNIT   1013 AT TIME STEP     24, STRESS PERIOD      1
 UBDSV06 SAVING         DATA-SAT IN MODEL FLOW             PACKAGE NPF             CONNECTED TO MODEL FLOW             PACKAGE NPF              ON UNIT   1013 AT TIME STEP     24, STRESS PERIOD      1
 UBDSV06 SAVING              WEL IN MODEL FLOW             PACKAGE FLOW            CONNECTED TO MODEL FLOW             PACKAGE WEL-1            ON UNIT   1013 AT TIME STEP     24, STRESS PERIOD      1
 UBDSV06 SAVING              CHD IN MODEL FLOW             PACKAGE FLOW            CONNECTED TO MODEL FLOW             PACKAGE CHD_0            ON UNIT   1013 AT TIME STEP     24, STRESS PERIOD      1

 HEAD WILL BE SAVED ON UNIT 1014 AT END OF TIME STEP   24, STRESS PERIOD    1

end timestep


start timestep kper="1" kstp="25" mode="normal"

 UBDSV1 SAVING     FLOW-JA-FACE ON UNIT   1013 AT TIME STEP     25, STRESS PERIOD      1
 UBDSV06 SAVING       DATA-SPDIS IN MODEL FLOW             PACKAGE NPF             CONNECTED TO MODEL FLOW             PACKAGE NPF              ON UNIT   1013 AT TIME STEP     25, STRESS PERIOD      1
 UBDSV06 SAVING         DATA-SAT IN MODEL FLOW             PACKAGE NPF             CONNECTED TO MODEL FLOW             PACKAGE NPF              ON UNIT   1013 AT TIME STEP     25, STRESS PERIOD      1
 UBDSV06 SAVING              WEL IN MODEL FLOW             PACKAGE FLOW            CONNECTED TO MODEL FLOW             PACKAGE WEL-1            ON UNIT   1013 AT TIME STEP     25, STRESS PERIOD      1
 UBDSV06 SAVING              CHD IN MODEL FLOW             PACKAGE FLOW            CONNECTED TO MODEL FLOW             PACKAGE CHD_0            ON UNIT   1013 AT TIME STEP     25, STRESS PERIOD      1

 HEAD WILL BE SAVED ON UNIT 1014 AT END OF TIME STEP   25, STRESS PERIOD    1

end timestep


start timestep kper="1" kstp="26" mode="normal"

 UBDSV1 SAVING     FLOW-JA-FACE ON UNIT   1013 AT TIME STEP     26, STRESS PERIOD      1
 UBDSV06 SAVING       DATA-SPDIS IN MODEL FLOW             PACKAGE NPF             CONNECTED TO MODEL FLOW             PACKAGE NPF              ON UNIT   1013 AT TIME STEP     26, STRESS PERIOD      1
 UBDSV06 SAVING         DATA-SAT IN MODEL FLOW             PACKAGE NPF             CONNECTED TO MODEL FLOW             PACKAGE NPF              ON UNIT   1013 AT TIME STEP     26, STRESS PERIOD      1
 UBDSV06 SAVING              WEL IN MODEL FLOW             PACKAGE FLOW            CONNECTED TO MODEL FLOW             PACKAGE WEL-1            ON UNIT   1013 AT TIME STEP     26, STRESS PERIOD      1
 UBDSV06 SAVING              CHD IN MODEL FLOW             PACKAGE FLOW            CONNECTED TO MODEL FLOW             PACKAGE CHD_0            ON UNIT   1013 AT TIME STEP     26, STRESS PERIOD      1

 HEAD WILL BE SAVED ON UNIT 1014 AT END OF TIME STEP   26, STRESS PERIOD    1

end timestep


start timestep kper="1" kstp="27" mode="normal"

 UBDSV1 SAVING     FLOW-JA-FACE ON UNIT   1013 AT TIME STEP     27, STRESS PERIOD      1
 UBDSV06 SAVING       DATA-SPDIS IN MODEL FLOW             PACKAGE NPF             CONNECTED TO MODEL FLOW             PACKAGE NPF              ON UNIT   1013 AT TIME STEP     27, STRESS PERIOD      1
 UBDSV06 SAVING         DATA-SAT IN MODEL FLOW             PACKAGE NPF             CONNECTED TO MODEL FLOW             PACKAGE NPF              ON UNIT   1013 AT TIME STEP     27, STRESS PERIOD      1
 UBDSV06 SAVING              WEL IN MODEL FLOW             PACKAGE FLOW            CONNECTED TO MODEL FLOW             PACKAGE WEL-1            ON UNIT   1013 AT TIME STEP     27, STRESS PERIOD      1
 UBDSV06 SAVING              CHD IN MODEL FLOW             PACKAGE FLOW            CONNECTED TO MODEL FLOW             PACKAGE CHD_0            ON UNIT   1013 AT TIME STEP     27, STRESS PERIOD      1

 HEAD WILL BE SAVED ON UNIT 1014 AT END OF TIME STEP   27, STRESS PERIOD    1

end timestep


start timestep kper="1" kstp="28" mode="normal"

 UBDSV1 SAVING     FLOW-JA-FACE ON UNIT   1013 AT TIME STEP     28, STRESS PERIOD      1
 UBDSV06 SAVING       DATA-SPDIS IN MODEL FLOW             PACKAGE NPF             CONNECTED TO MODEL FLOW             PACKAGE NPF              ON UNIT   1013 AT TIME STEP     28, STRESS PERIOD      1
 UBDSV06 SAVING         DATA-SAT IN MODEL FLOW             PACKAGE NPF             CONNECTED TO MODEL FLOW             PACKAGE NPF              ON UNIT   1013 AT TIME STEP     28, STRESS PERIOD      1
 UBDSV06 SAVING              WEL IN MODEL FLOW             PACKAGE FLOW            CONNECTED TO MODEL FLOW             PACKAGE WEL-1            ON UNIT   1013 AT TIME STEP     28, STRESS PERIOD      1
 UBDSV06 SAVING              CHD IN MODEL FLOW             PACKAGE FLOW            CONNECTED TO MODEL FLOW             PACKAGE CHD_0            ON UNIT   1013 AT TIME STEP     28, STRESS PERIOD      1

 HEAD WILL BE SAVED ON UNIT 1014 AT END OF TIME STEP   28, STRESS PERIOD    1

end timestep


start timestep kper="1" kstp="29" mode="normal"

 UBDSV1 SAVING     FLOW-JA-FACE ON UNIT   1013 AT TIME STEP     29, STRESS PERIOD      1
 UBDSV06 SAVING       DATA-SPDIS IN MODEL FLOW             PACKAGE NPF             CONNECTED TO MODEL FLOW             PACKAGE NPF              ON UNIT   1013 AT TIME STEP     29, STRESS PERIOD      1
 UBDSV06 SAVING         DATA-SAT IN MODEL FLOW             PACKAGE NPF             CONNECTED TO MODEL FLOW             PACKAGE NPF              ON UNIT   1013 AT TIME STEP     29, STRESS PERIOD      1
 UBDSV06 SAVING              WEL IN MODEL FLOW             PACKAGE FLOW            CONNECTED TO MODEL FLOW             PACKAGE WEL-1            ON UNIT   1013 AT TIME STEP     29, STRESS PERIOD      1
 UBDSV06 SAVING              CHD IN MODEL FLOW             PACKAGE FLOW            CONNECTED TO MODEL FLOW             PACKAGE CHD_0            ON UNIT   1013 AT TIME STEP     29, STRESS PERIOD      1

 HEAD WILL BE SAVED ON UNIT 1014 AT END OF TIME STEP   29, STRESS PERIOD    1

end timestep


start timestep kper="1" kstp="30" mode="normal"

 UBDSV1 SAVING     FLOW-JA-FACE ON UNIT   1013 AT TIME STEP     30, STRESS PERIOD      1
 UBDSV06 SAVING       DATA-SPDIS IN MODEL FLOW             PACKAGE NPF             CONNECTED TO MODEL FLOW             PACKAGE NPF              ON UNIT   1013 AT TIME STEP     30, STRESS PERIOD      1
 UBDSV06 SAVING         DATA-SAT IN MODEL FLOW             PACKAGE NPF             CONNECTED TO MODEL FLOW             PACKAGE NPF              ON UNIT   1013 AT TIME STEP     30, STRESS PERIOD      1
 UBDSV06 SAVING              WEL IN MODEL FLOW             PACKAGE FLOW            CONNECTED TO MODEL FLOW             PACKAGE WEL-1            ON UNIT   1013 AT TIME STEP     30, STRESS PERIOD      1
 UBDSV06 SAVING              CHD IN MODEL FLOW             PACKAGE FLOW            CONNECTED TO MODEL FLOW             PACKAGE CHD_0            ON UNIT   1013 AT TIME STEP     30, STRESS PERIOD      1

 HEAD WILL BE SAVED ON UNIT 1014 AT END OF TIME STEP   30, STRESS PERIOD    1

end timestep


start timestep kper="1" kstp="31" mode="normal"

 UBDSV1 SAVING     FLOW-JA-FACE ON UNIT   1013 AT TIME STEP     31, STRESS PERIOD      1
 UBDSV06 SAVING       DATA-SPDIS IN MODEL FLOW             PACKAGE NPF             CONNECTED TO MODEL FLOW             PACKAGE NPF              ON UNIT   1013 AT TIME STEP     31, STRESS PERIOD      1
 UBDSV06 SAVING         DATA-SAT IN MODEL FLOW             PACKAGE NPF             CONNECTED TO MODEL FLOW             PACKAGE NPF              ON UNIT   1013 AT TIME STEP     31, STRESS PERIOD      1
 UBDSV06 SAVING              WEL IN MODEL FLOW             PACKAGE FLOW            CONNECTED TO MODEL FLOW             PACKAGE WEL-1            ON UNIT   1013 AT TIME STEP     31, STRESS PERIOD      1
 UBDSV06 SAVING              CHD IN MODEL FLOW             PACKAGE FLOW            CONNECTED TO MODEL FLOW             PACKAGE CHD_0            ON UNIT   1013 AT TIME STEP     31, STRESS PERIOD      1

 HEAD WILL BE SAVED ON UNIT 1014 AT END OF TIME STEP   31, STRESS PERIOD    1

end timestep


start timestep kper="1" kstp="32" mode="normal"

 UBDSV1 SAVING     FLOW-JA-FACE ON UNIT   1013 AT TIME STEP     32, STRESS PERIOD      1
 UBDSV06 SAVING       DATA-SPDIS IN MODEL FLOW             PACKAGE NPF             CONNECTED TO MODEL FLOW             PACKAGE NPF              ON UNIT   1013 AT TIME STEP     32, STRESS PERIOD      1
 UBDSV06 SAVING         DATA-SAT IN MODEL FLOW             PACKAGE NPF             CONNECTED TO MODEL FLOW             PACKAGE NPF              ON UNIT   1013 AT TIME STEP     32, STRESS PERIOD      1
 UBDSV06 SAVING              WEL IN MODEL FLOW             PACKAGE FLOW            CONNECTED TO MODEL FLOW             PACKAGE WEL-1            ON UNIT   1013 AT TIME STEP     32, STRESS PERIOD      1
 UBDSV06 SAVING              CHD IN MODEL FLOW             PACKAGE FLOW            CONNECTED TO MODEL FLOW             PACKAGE CHD_0            ON UNIT   1013 AT TIME STEP     32, STRESS PERIOD      1

 HEAD WILL BE SAVED ON UNIT 1014 AT END OF TIME STEP   32, STRESS PERIOD    1

end timestep


start timestep kper="1" kstp="33" mode="normal"

 UBDSV1 SAVING     FLOW-JA-FACE ON UNIT   1013 AT TIME STEP     33, STRESS PERIOD      1
 UBDSV06 SAVING       DATA-SPDIS IN MODEL FLOW             PACKAGE NPF             CONNECTED TO MODEL FLOW             PACKAGE NPF              ON UNIT   1013 AT TIME STEP     33, STRESS PERIOD      1
 UBDSV06 SAVING         DATA-SAT IN MODEL FLOW             PACKAGE NPF             CONNECTED TO MODEL FLOW             PACKAGE NPF              ON UNIT   1013 AT TIME STEP     33, STRESS PERIOD      1
 UBDSV06 SAVING              WEL IN MODEL FLOW             PACKAGE FLOW            CONNECTED TO MODEL FLOW             PACKAGE WEL-1            ON UNIT   1013 AT TIME STEP     33, STRESS PERIOD      1
 UBDSV06 SAVING              CHD IN MODEL FLOW             PACKAGE FLOW            CONNECTED TO MODEL FLOW             PACKAGE CHD_0            ON UNIT   1013 AT TIME STEP     33, STRESS PERIOD      1

 HEAD WILL BE SAVED ON UNIT 1014 AT END OF TIME STEP   33, STRESS PERIOD    1

end timestep


start timestep kper="1" kstp="34" mode="normal"

 UBDSV1 SAVING     FLOW-JA-FACE ON UNIT   1013 AT TIME STEP     34, STRESS PERIOD      1
 UBDSV06 SAVING       DATA-SPDIS IN MODEL FLOW             PACKAGE NPF             CONNECTED TO MODEL FLOW             PACKAGE NPF              ON UNIT   1013 AT TIME STEP     34, STRESS PERIOD      1
 UBDSV06 SAVING         DATA-SAT IN MODEL FLOW             PACKAGE NPF             CONNECTED TO MODEL FLOW             PACKAGE NPF              ON UNIT   1013 AT TIME STEP     34, STRESS PERIOD      1
 UBDSV06 SAVING              WEL IN MODEL FLOW             PACKAGE FLOW            CONNECTED TO MODEL FLOW             PACKAGE WEL-1            ON UNIT   1013 AT TIME STEP     34, STRESS PERIOD      1
 UBDSV06 SAVING              CHD IN MODEL FLOW             PACKAGE FLOW            CONNECTED TO MODEL FLOW             PACKAGE CHD_0            ON UNIT   1013 AT TIME STEP     34, STRESS PERIOD      1

 HEAD WILL BE SAVED ON UNIT 1014 AT END OF TIME STEP   34, STRESS PERIOD    1

end timestep


start timestep kper="1" kstp="35" mode="normal"

 UBDSV1 SAVING     FLOW-JA-FACE ON UNIT   1013 AT TIME STEP     35, STRESS PERIOD      1
 UBDSV06 SAVING       DATA-SPDIS IN MODEL FLOW             PACKAGE NPF             CONNECTED TO MODEL FLOW             PACKAGE NPF              ON UNIT   1013 AT TIME STEP     35, STRESS PERIOD      1
 UBDSV06 SAVING         DATA-SAT IN MODEL FLOW             PACKAGE NPF             CONNECTED TO MODEL FLOW             PACKAGE NPF              ON UNIT   1013 AT TIME STEP     35, STRESS PERIOD      1
 UBDSV06 SAVING              WEL IN MODEL FLOW             PACKAGE FLOW            CONNECTED TO MODEL FLOW             PACKAGE WEL-1            ON UNIT   1013 AT TIME STEP     35, STRESS PERIOD      1
 UBDSV06 SAVING              CHD IN MODEL FLOW             PACKAGE FLOW            CONNECTED TO MODEL FLOW             PACKAGE CHD_0            ON UNIT   1013 AT TIME STEP     35, STRESS PERIOD      1

 HEAD WILL BE SAVED ON UNIT 1014 AT END OF TIME STEP   35, STRESS PERIOD    1

end timestep


start timestep kper="1" kstp="36" mode="normal"

 UBDSV1 SAVING     FLOW-JA-FACE ON UNIT   1013 AT TIME STEP     36, STRESS PERIOD      1
 UBDSV06 SAVING       DATA-SPDIS IN MODEL FLOW             PACKAGE NPF             CONNECTED TO MODEL FLOW             PACKAGE NPF              ON UNIT   1013 AT TIME STEP     36, STRESS PERIOD      1
 UBDSV06 SAVING         DATA-SAT IN MODEL FLOW             PACKAGE NPF             CONNECTED TO MODEL FLOW             PACKAGE NPF              ON UNIT   1013 AT TIME STEP     36, STRESS PERIOD      1
 UBDSV06 SAVING              WEL IN MODEL FLOW             PACKAGE FLOW            CONNECTED TO MODEL FLOW             PACKAGE WEL-1            ON UNIT   1013 AT TIME STEP     36, STRESS PERIOD      1
 UBDSV06 SAVING              CHD IN MODEL FLOW             PACKAGE FLOW            CONNECTED TO MODEL FLOW             PACKAGE CHD_0            ON UNIT   1013 AT TIME STEP     36, STRESS PERIOD      1

 HEAD WILL BE SAVED ON UNIT 1014 AT END OF TIME STEP   36, STRESS PERIOD    1

end timestep


start timestep kper="1" kstp="37" mode="normal"

 UBDSV1 SAVING     FLOW-JA-FACE ON UNIT   1013 AT TIME STEP     37, STRESS PERIOD      1
 UBDSV06 SAVING       DATA-SPDIS IN MODEL FLOW             PACKAGE NPF             CONNECTED TO MODEL FLOW             PACKAGE NPF              ON UNIT   1013 AT TIME STEP     37, STRESS PERIOD      1
 UBDSV06 SAVING         DATA-SAT IN MODEL FLOW             PACKAGE NPF             CONNECTED TO MODEL FLOW             PACKAGE NPF              ON UNIT   1013 AT TIME STEP     37, STRESS PERIOD      1
 UBDSV06 SAVING              WEL IN MODEL FLOW             PACKAGE FLOW            CONNECTED TO MODEL FLOW             PACKAGE WEL-1            ON UNIT   1013 AT TIME STEP     37, STRESS PERIOD      1
 UBDSV06 SAVING              CHD IN MODEL FLOW             PACKAGE FLOW            CONNECTED TO MODEL FLOW             PACKAGE CHD_0            ON UNIT   1013 AT TIME STEP     37, STRESS PERIOD      1

 HEAD WILL BE SAVED ON UNIT 1014 AT END OF TIME STEP   37, STRESS PERIOD    1

end timestep


start timestep kper="1" kstp="38" mode="normal"

 UBDSV1 SAVING     FLOW-JA-FACE ON UNIT   1013 AT TIME STEP     38, STRESS PERIOD      1
 UBDSV06 SAVING       DATA-SPDIS IN MODEL FLOW             PACKAGE NPF             CONNECTED TO MODEL FLOW             PACKAGE NPF              ON UNIT   1013 AT TIME STEP     38, STRESS PERIOD      1
 UBDSV06 SAVING         DATA-SAT IN MODEL FLOW             PACKAGE NPF             CONNECTED TO MODEL FLOW             PACKAGE NPF              ON UNIT   1013 AT TIME STEP     38, STRESS PERIOD      1
 UBDSV06 SAVING              WEL IN MODEL FLOW             PACKAGE FLOW            CONNECTED TO MODEL FLOW             PACKAGE WEL-1            ON UNIT   1013 AT TIME STEP     38, STRESS PERIOD      1
 UBDSV06 SAVING              CHD IN MODEL FLOW             PACKAGE FLOW            CONNECTED TO MODEL FLOW             PACKAGE CHD_0            ON UNIT   1013 AT TIME STEP     38, STRESS PERIOD      1

 HEAD WILL BE SAVED ON UNIT 1014 AT END OF TIME STEP   38, STRESS PERIOD    1

end timestep


start timestep kper="1" kstp="39" mode="normal"

 UBDSV1 SAVING     FLOW-JA-FACE ON UNIT   1013 AT TIME STEP     39, STRESS PERIOD      1
 UBDSV06 SAVING       DATA-SPDIS IN MODEL FLOW             PACKAGE NPF             CONNECTED TO MODEL FLOW             PACKAGE NPF              ON UNIT   1013 AT TIME STEP     39, STRESS PERIOD      1
 UBDSV06 SAVING         DATA-SAT IN MODEL FLOW             PACKAGE NPF             CONNECTED TO MODEL FLOW             PACKAGE NPF              ON UNIT   1013 AT TIME STEP     39, STRESS PERIOD      1
 UBDSV06 SAVING              WEL IN MODEL FLOW             PACKAGE FLOW            CONNECTED TO MODEL FLOW             PACKAGE WEL-1            ON UNIT   1013 AT TIME STEP     39, STRESS PERIOD      1
 UBDSV06 SAVING              CHD IN MODEL FLOW             PACKAGE FLOW            CONNECTED TO MODEL FLOW             PACKAGE CHD_0            ON UNIT   1013 AT TIME STEP     39, STRESS PERIOD      1

 HEAD WILL BE SAVED ON UNIT 1014 AT END OF TIME STEP   39, STRESS PERIOD    1

end timestep


start timestep kper="1" kstp="40" mode="normal"

 UBDSV1 SAVING     FLOW-JA-FACE ON UNIT   1013 AT TIME STEP     40, STRESS PERIOD      1
 UBDSV06 SAVING       DATA-SPDIS IN MODEL FLOW             PACKAGE NPF             CONNECTED TO MODEL FLOW             PACKAGE NPF              ON UNIT   1013 AT TIME STEP     40, STRESS PERIOD      1
 UBDSV06 SAVING         DATA-SAT IN MODEL FLOW             PACKAGE NPF             CONNECTED TO MODEL FLOW             PACKAGE NPF              ON UNIT   1013 AT TIME STEP     40, STRESS PERIOD      1
 UBDSV06 SAVING              WEL IN MODEL FLOW             PACKAGE FLOW            CONNECTED TO MODEL FLOW             PACKAGE WEL-1            ON UNIT   1013 AT TIME STEP     40, STRESS PERIOD      1
 UBDSV06 SAVING              CHD IN MODEL FLOW             PACKAGE FLOW            CONNECTED TO MODEL FLOW             PACKAGE CHD_0            ON UNIT   1013 AT TIME STEP     40, STRESS PERIOD      1

 HEAD WILL BE SAVED ON UNIT 1014 AT END OF TIME STEP   40, STRESS PERIOD    1

end timestep


start timestep kper="1" kstp="41" mode="normal"

 UBDSV1 SAVING     FLOW-JA-FACE ON UNIT   1013 AT TIME STEP     41, STRESS PERIOD      1
 UBDSV06 SAVING       DATA-SPDIS IN MODEL FLOW             PACKAGE NPF             CONNECTED TO MODEL FLOW             PACKAGE NPF              ON UNIT   1013 AT TIME STEP     41, STRESS PERIOD      1
 UBDSV06 SAVING         DATA-SAT IN MODEL FLOW             PACKAGE NPF             CONNECTED TO MODEL FLOW             PACKAGE NPF              ON UNIT   1013 AT TIME STEP     41, STRESS PERIOD      1
 UBDSV06 SAVING              WEL IN MODEL FLOW             PACKAGE FLOW            CONNECTED TO MODEL FLOW             PACKAGE WEL-1            ON UNIT   1013 AT TIME STEP     41, STRESS PERIOD      1
 UBDSV06 SAVING              CHD IN MODEL FLOW             PACKAGE FLOW            CONNECTED TO MODEL FLOW             PACKAGE CHD_0            ON UNIT   1013 AT TIME STEP     41, STRESS PERIOD      1

 HEAD WILL BE SAVED ON UNIT 1014 AT END OF TIME STEP   41, STRESS PERIOD    1

end timestep


start timestep kper="1" kstp="42" mode="normal"

 UBDSV1 SAVING     FLOW-JA-FACE ON UNIT   1013 AT TIME STEP     42, STRESS PERIOD      1
 UBDSV06 SAVING       DATA-SPDIS IN MODEL FLOW             PACKAGE NPF             CONNECTED TO MODEL FLOW             PACKAGE NPF              ON UNIT   1013 AT TIME STEP     42, STRESS PERIOD      1
 UBDSV06 SAVING         DATA-SAT IN MODEL FLOW             PACKAGE NPF             CONNECTED TO MODEL FLOW             PACKAGE NPF              ON UNIT   1013 AT TIME STEP     42, STRESS PERIOD      1
 UBDSV06 SAVING              WEL IN MODEL FLOW             PACKAGE FLOW            CONNECTED TO MODEL FLOW             PACKAGE WEL-1            ON UNIT   1013 AT TIME STEP     42, STRESS PERIOD      1
 UBDSV06 SAVING              CHD IN MODEL FLOW             PACKAGE FLOW            CONNECTED TO MODEL FLOW             PACKAGE CHD_0            ON UNIT   1013 AT TIME STEP     42, STRESS PERIOD      1

 HEAD WILL BE SAVED ON UNIT 1014 AT END OF TIME STEP   42, STRESS PERIOD    1

end timestep


start timestep kper="1" kstp="43" mode="normal"

 UBDSV1 SAVING     FLOW-JA-FACE ON UNIT   1013 AT TIME STEP     43, STRESS PERIOD      1
 UBDSV06 SAVING       DATA-SPDIS IN MODEL FLOW             PACKAGE NPF             CONNECTED TO MODEL FLOW             PACKAGE NPF              ON UNIT   1013 AT TIME STEP     43, STRESS PERIOD      1
 UBDSV06 SAVING         DATA-SAT IN MODEL FLOW             PACKAGE NPF             CONNECTED TO MODEL FLOW             PACKAGE NPF              ON UNIT   1013 AT TIME STEP     43, STRESS PERIOD      1
 UBDSV06 SAVING              WEL IN MODEL FLOW             PACKAGE FLOW            CONNECTED TO MODEL FLOW             PACKAGE WEL-1            ON UNIT   1013 AT TIME STEP     43, STRESS PERIOD      1
 UBDSV06 SAVING              CHD IN MODEL FLOW             PACKAGE FLOW            CONNECTED TO MODEL FLOW             PACKAGE CHD_0            ON UNIT   1013 AT TIME STEP     43, STRESS PERIOD      1

 HEAD WILL BE SAVED ON UNIT 1014 AT END OF TIME STEP   43, STRESS PERIOD    1

end timestep


start timestep kper="1" kstp="44" mode="normal"

 UBDSV1 SAVING     FLOW-JA-FACE ON UNIT   1013 AT TIME STEP     44, STRESS PERIOD      1
 UBDSV06 SAVING       DATA-SPDIS IN MODEL FLOW             PACKAGE NPF             CONNECTED TO MODEL FLOW             PACKAGE NPF              ON UNIT   1013 AT TIME STEP     44, STRESS PERIOD      1
 UBDSV06 SAVING         DATA-SAT IN MODEL FLOW             PACKAGE NPF             CONNECTED TO MODEL FLOW             PACKAGE NPF              ON UNIT   1013 AT TIME STEP     44, STRESS PERIOD      1
 UBDSV06 SAVING              WEL IN MODEL FLOW             PACKAGE FLOW            CONNECTED TO MODEL FLOW             PACKAGE WEL-1            ON UNIT   1013 AT TIME STEP     44, STRESS PERIOD      1
 UBDSV06 SAVING              CHD IN MODEL FLOW             PACKAGE FLOW            CONNECTED TO MODEL FLOW             PACKAGE CHD_0            ON UNIT   1013 AT TIME STEP     44, STRESS PERIOD      1

 HEAD WILL BE SAVED ON UNIT 1014 AT END OF TIME STEP   44, STRESS PERIOD    1

end timestep


start timestep kper="1" kstp="45" mode="normal"

 UBDSV1 SAVING     FLOW-JA-FACE ON UNIT   1013 AT TIME STEP     45, STRESS PERIOD      1
 UBDSV06 SAVING       DATA-SPDIS IN MODEL FLOW             PACKAGE NPF             CONNECTED TO MODEL FLOW             PACKAGE NPF              ON UNIT   1013 AT TIME STEP     45, STRESS PERIOD      1
 UBDSV06 SAVING         DATA-SAT IN MODEL FLOW             PACKAGE NPF             CONNECTED TO MODEL FLOW             PACKAGE NPF              ON UNIT   1013 AT TIME STEP     45, STRESS PERIOD      1
 UBDSV06 SAVING              WEL IN MODEL FLOW             PACKAGE FLOW            CONNECTED TO MODEL FLOW             PACKAGE WEL-1            ON UNIT   1013 AT TIME STEP     45, STRESS PERIOD      1
 UBDSV06 SAVING              CHD IN MODEL FLOW             PACKAGE FLOW            CONNECTED TO MODEL FLOW             PACKAGE CHD_0            ON UNIT   1013 AT TIME STEP     45, STRESS PERIOD      1

 HEAD WILL BE SAVED ON UNIT 1014 AT END OF TIME STEP   45, STRESS PERIOD    1

end timestep


start timestep kper="1" kstp="46" mode="normal"

 UBDSV1 SAVING     FLOW-JA-FACE ON UNIT   1013 AT TIME STEP     46, STRESS PERIOD      1
 UBDSV06 SAVING       DATA-SPDIS IN MODEL FLOW             PACKAGE NPF             CONNECTED TO MODEL FLOW             PACKAGE NPF              ON UNIT   1013 AT TIME STEP     46, STRESS PERIOD      1
 UBDSV06 SAVING         DATA-SAT IN MODEL FLOW             PACKAGE NPF             CONNECTED TO MODEL FLOW             PACKAGE NPF              ON UNIT   1013 AT TIME STEP     46, STRESS PERIOD      1
 UBDSV06 SAVING              WEL IN MODEL FLOW             PACKAGE FLOW            CONNECTED TO MODEL FLOW             PACKAGE WEL-1            ON UNIT   1013 AT TIME STEP     46, STRESS PERIOD      1
 UBDSV06 SAVING              CHD IN MODEL FLOW             PACKAGE FLOW            CONNECTED TO MODEL FLOW             PACKAGE CHD_0            ON UNIT   1013 AT TIME STEP     46, STRESS PERIOD      1

 HEAD WILL BE SAVED ON UNIT 1014 AT END OF TIME STEP   46, STRESS PERIOD    1

end timestep


start timestep kper="1" kstp="47" mode="normal"

 UBDSV1 SAVING     FLOW-JA-FACE ON UNIT   1013 AT TIME STEP     47, STRESS PERIOD      1
 UBDSV06 SAVING       DATA-SPDIS IN MODEL FLOW             PACKAGE NPF             CONNECTED TO MODEL FLOW             PACKAGE NPF              ON UNIT   1013 AT TIME STEP     47, STRESS PERIOD      1
 UBDSV06 SAVING         DATA-SAT IN MODEL FLOW             PACKAGE NPF             CONNECTED TO MODEL FLOW             PACKAGE NPF              ON UNIT   1013 AT TIME STEP     47, STRESS PERIOD      1
 UBDSV06 SAVING              WEL IN MODEL FLOW             PACKAGE FLOW            CONNECTED TO MODEL FLOW             PACKAGE WEL-1            ON UNIT   1013 AT TIME STEP     47, STRESS PERIOD      1
 UBDSV06 SAVING              CHD IN MODEL FLOW             PACKAGE FLOW            CONNECTED TO MODEL FLOW             PACKAGE CHD_0            ON UNIT   1013 AT TIME STEP     47, STRESS PERIOD      1

 HEAD WILL BE SAVED ON UNIT 1014 AT END OF TIME STEP   47, STRESS PERIOD    1

end timestep


start timestep kper="1" kstp="48" mode="normal"

 UBDSV1 SAVING     FLOW-JA-FACE ON UNIT   1013 AT TIME STEP     48, STRESS PERIOD      1
 UBDSV06 SAVING       DATA-SPDIS IN MODEL FLOW             PACKAGE NPF             CONNECTED TO MODEL FLOW             PACKAGE NPF              ON UNIT   1013 AT TIME STEP     48, STRESS PERIOD      1
 UBDSV06 SAVING         DATA-SAT IN MODEL FLOW             PACKAGE NPF             CONNECTED TO MODEL FLOW             PACKAGE NPF              ON UNIT   1013 AT TIME STEP     48, STRESS PERIOD      1
 UBDSV06 SAVING              WEL IN MODEL FLOW             PACKAGE FLOW            CONNECTED TO MODEL FLOW             PACKAGE WEL-1            ON UNIT   1013 AT TIME STEP     48, STRESS PERIOD      1
 UBDSV06 SAVING              CHD IN MODEL FLOW             PACKAGE FLOW            CONNECTED TO MODEL FLOW             PACKAGE CHD_0            ON UNIT   1013 AT TIME STEP     48, STRESS PERIOD      1

 HEAD WILL BE SAVED ON UNIT 1014 AT END OF TIME STEP   48, STRESS PERIOD    1

end timestep


start timestep kper="1" kstp="49" mode="normal"

 UBDSV1 SAVING     FLOW-JA-FACE ON UNIT   1013 AT TIME STEP     49, STRESS PERIOD      1
 UBDSV06 SAVING       DATA-SPDIS IN MODEL FLOW             PACKAGE NPF             CONNECTED TO MODEL FLOW             PACKAGE NPF              ON UNIT   1013 AT TIME STEP     49, STRESS PERIOD      1
 UBDSV06 SAVING         DATA-SAT IN MODEL FLOW             PACKAGE NPF             CONNECTED TO MODEL FLOW             PACKAGE NPF              ON UNIT   1013 AT TIME STEP     49, STRESS PERIOD      1
 UBDSV06 SAVING              WEL IN MODEL FLOW             PACKAGE FLOW            CONNECTED TO MODEL FLOW             PACKAGE WEL-1            ON UNIT   1013 AT TIME STEP     49, STRESS PERIOD      1
 UBDSV06 SAVING              CHD IN MODEL FLOW             PACKAGE FLOW            CONNECTED TO MODEL FLOW             PACKAGE CHD_0            ON UNIT   1013 AT TIME STEP     49, STRESS PERIOD      1

 HEAD WILL BE SAVED ON UNIT 1014 AT END OF TIME STEP   49, STRESS PERIOD    1

end timestep


start timestep kper="1" kstp="50" mode="normal"

 UBDSV1 SAVING     FLOW-JA-FACE ON UNIT   1013 AT TIME STEP     50, STRESS PERIOD      1
 UBDSV06 SAVING       DATA-SPDIS IN MODEL FLOW             PACKAGE NPF             CONNECTED TO MODEL FLOW             PACKAGE NPF              ON UNIT   1013 AT TIME STEP     50, STRESS PERIOD      1
 UBDSV06 SAVING         DATA-SAT IN MODEL FLOW             PACKAGE NPF             CONNECTED TO MODEL FLOW             PACKAGE NPF              ON UNIT   1013 AT TIME STEP     50, STRESS PERIOD      1
 UBDSV06 SAVING              WEL IN MODEL FLOW             PACKAGE FLOW            CONNECTED TO MODEL FLOW             PACKAGE WEL-1            ON UNIT   1013 AT TIME STEP     50, STRESS PERIOD      1
 UBDSV06 SAVING              CHD IN MODEL FLOW             PACKAGE FLOW            CONNECTED TO MODEL FLOW             PACKAGE CHD_0            ON UNIT   1013 AT TIME STEP     50, STRESS PERIOD      1

 HEAD WILL BE SAVED ON UNIT 1014 AT END OF TIME STEP   50, STRESS PERIOD    1

end timestep


start timestep kper="1" kstp="51" mode="normal"

 UBDSV1 SAVING     FLOW-JA-FACE ON UNIT   1013 AT TIME STEP     51, STRESS PERIOD      1
 UBDSV06 SAVING       DATA-SPDIS IN MODEL FLOW             PACKAGE NPF             CONNECTED TO MODEL FLOW             PACKAGE NPF              ON UNIT   1013 AT TIME STEP     51, STRESS PERIOD      1
 UBDSV06 SAVING         DATA-SAT IN MODEL FLOW             PACKAGE NPF             CONNECTED TO MODEL FLOW             PACKAGE NPF              ON UNIT   1013 AT TIME STEP     51, STRESS PERIOD      1
 UBDSV06 SAVING              WEL IN MODEL FLOW             PACKAGE FLOW            CONNECTED TO MODEL FLOW             PACKAGE WEL-1            ON UNIT   1013 AT TIME STEP     51, STRESS PERIOD      1
 UBDSV06 SAVING              CHD IN MODEL FLOW             PACKAGE FLOW            CONNECTED TO MODEL FLOW             PACKAGE CHD_0            ON UNIT   1013 AT TIME STEP     51, STRESS PERIOD      1

 HEAD WILL BE SAVED ON UNIT 1014 AT END OF TIME STEP   51, STRESS PERIOD    1

end timestep


start timestep kper="1" kstp="52" mode="normal"

 UBDSV1 SAVING     FLOW-JA-FACE ON UNIT   1013 AT TIME STEP     52, STRESS PERIOD      1
 UBDSV06 SAVING       DATA-SPDIS IN MODEL FLOW             PACKAGE NPF             CONNECTED TO MODEL FLOW             PACKAGE NPF              ON UNIT   1013 AT TIME STEP     52, STRESS PERIOD      1
 UBDSV06 SAVING         DATA-SAT IN MODEL FLOW             PACKAGE NPF             CONNECTED TO MODEL FLOW             PACKAGE NPF              ON UNIT   1013 AT TIME STEP     52, STRESS PERIOD      1
 UBDSV06 SAVING              WEL IN MODEL FLOW             PACKAGE FLOW            CONNECTED TO MODEL FLOW             PACKAGE WEL-1            ON UNIT   1013 AT TIME STEP     52, STRESS PERIOD      1
 UBDSV06 SAVING              CHD IN MODEL FLOW             PACKAGE FLOW            CONNECTED TO MODEL FLOW             PACKAGE CHD_0            ON UNIT   1013 AT TIME STEP     52, STRESS PERIOD      1

 HEAD WILL BE SAVED ON UNIT 1014 AT END OF TIME STEP   52, STRESS PERIOD    1

end timestep


start timestep kper="1" kstp="53" mode="normal"

 UBDSV1 SAVING     FLOW-JA-FACE ON UNIT   1013 AT TIME STEP     53, STRESS PERIOD      1
 UBDSV06 SAVING       DATA-SPDIS IN MODEL FLOW             PACKAGE NPF             CONNECTED TO MODEL FLOW             PACKAGE NPF              ON UNIT   1013 AT TIME STEP     53, STRESS PERIOD      1
 UBDSV06 SAVING         DATA-SAT IN MODEL FLOW             PACKAGE NPF             CONNECTED TO MODEL FLOW             PACKAGE NPF              ON UNIT   1013 AT TIME STEP     53, STRESS PERIOD      1
 UBDSV06 SAVING              WEL IN MODEL FLOW             PACKAGE FLOW            CONNECTED TO MODEL FLOW             PACKAGE WEL-1            ON UNIT   1013 AT TIME STEP     53, STRESS PERIOD      1
 UBDSV06 SAVING              CHD IN MODEL FLOW             PACKAGE FLOW            CONNECTED TO MODEL FLOW             PACKAGE CHD_0            ON UNIT   1013 AT TIME STEP     53, STRESS PERIOD      1

 HEAD WILL BE SAVED ON UNIT 1014 AT END OF TIME STEP   53, STRESS PERIOD    1

end timestep


start timestep kper="1" kstp="54" mode="normal"

 UBDSV1 SAVING     FLOW-JA-FACE ON UNIT   1013 AT TIME STEP     54, STRESS PERIOD      1
 UBDSV06 SAVING       DATA-SPDIS IN MODEL FLOW             PACKAGE NPF             CONNECTED TO MODEL FLOW             PACKAGE NPF              ON UNIT   1013 AT TIME STEP     54, STRESS PERIOD      1
 UBDSV06 SAVING         DATA-SAT IN MODEL FLOW             PACKAGE NPF             CONNECTED TO MODEL FLOW             PACKAGE NPF              ON UNIT   1013 AT TIME STEP     54, STRESS PERIOD      1
 UBDSV06 SAVING              WEL IN MODEL FLOW             PACKAGE FLOW            CONNECTED TO MODEL FLOW             PACKAGE WEL-1            ON UNIT   1013 AT TIME STEP     54, STRESS PERIOD      1
 UBDSV06 SAVING              CHD IN MODEL FLOW             PACKAGE FLOW            CONNECTED TO MODEL FLOW             PACKAGE CHD_0            ON UNIT   1013 AT TIME STEP     54, STRESS PERIOD      1

 HEAD WILL BE SAVED ON UNIT 1014 AT END OF TIME STEP   54, STRESS PERIOD    1

end timestep


start timestep kper="1" kstp="55" mode="normal"

 UBDSV1 SAVING     FLOW-JA-FACE ON UNIT   1013 AT TIME STEP     55, STRESS PERIOD      1
 UBDSV06 SAVING       DATA-SPDIS IN MODEL FLOW             PACKAGE NPF             CONNECTED TO MODEL FLOW             PACKAGE NPF              ON UNIT   1013 AT TIME STEP     55, STRESS PERIOD      1
 UBDSV06 SAVING         DATA-SAT IN MODEL FLOW             PACKAGE NPF             CONNECTED TO MODEL FLOW             PACKAGE NPF              ON UNIT   1013 AT TIME STEP     55, STRESS PERIOD      1
 UBDSV06 SAVING              WEL IN MODEL FLOW             PACKAGE FLOW            CONNECTED TO MODEL FLOW             PACKAGE WEL-1            ON UNIT   1013 AT TIME STEP     55, STRESS PERIOD      1
 UBDSV06 SAVING              CHD IN MODEL FLOW             PACKAGE FLOW            CONNECTED TO MODEL FLOW             PACKAGE CHD_0            ON UNIT   1013 AT TIME STEP     55, STRESS PERIOD      1

 HEAD WILL BE SAVED ON UNIT 1014 AT END OF TIME STEP   55, STRESS PERIOD    1

end timestep


start timestep kper="1" kstp="56" mode="normal"

 UBDSV1 SAVING     FLOW-JA-FACE ON UNIT   1013 AT TIME STEP     56, STRESS PERIOD      1
 UBDSV06 SAVING       DATA-SPDIS IN MODEL FLOW             PACKAGE NPF             CONNECTED TO MODEL FLOW             PACKAGE NPF              ON UNIT   1013 AT TIME STEP     56, STRESS PERIOD      1
 UBDSV06 SAVING         DATA-SAT IN MODEL FLOW             PACKAGE NPF             CONNECTED TO MODEL FLOW             PACKAGE NPF              ON UNIT   1013 AT TIME STEP     56, STRESS PERIOD      1
 UBDSV06 SAVING              WEL IN MODEL FLOW             PACKAGE FLOW            CONNECTED TO MODEL FLOW             PACKAGE WEL-1            ON UNIT   1013 AT TIME STEP     56, STRESS PERIOD      1
 UBDSV06 SAVING              CHD IN MODEL FLOW             PACKAGE FLOW            CONNECTED TO MODEL FLOW             PACKAGE CHD_0            ON UNIT   1013 AT TIME STEP     56, STRESS PERIOD      1

 HEAD WILL BE SAVED ON UNIT 1014 AT END OF TIME STEP   56, STRESS PERIOD    1

end timestep


start timestep kper="1" kstp="57" mode="normal"

 UBDSV1 SAVING     FLOW-JA-FACE ON UNIT   1013 AT TIME STEP     57, STRESS PERIOD      1
 UBDSV06 SAVING       DATA-SPDIS IN MODEL FLOW             PACKAGE NPF             CONNECTED TO MODEL FLOW             PACKAGE NPF              ON UNIT   1013 AT TIME STEP     57, STRESS PERIOD      1
 UBDSV06 SAVING         DATA-SAT IN MODEL FLOW             PACKAGE NPF             CONNECTED TO MODEL FLOW             PACKAGE NPF              ON UNIT   1013 AT TIME STEP     57, STRESS PERIOD      1
 UBDSV06 SAVING              WEL IN MODEL FLOW             PACKAGE FLOW            CONNECTED TO MODEL FLOW             PACKAGE WEL-1            ON UNIT   1013 AT TIME STEP     57, STRESS PERIOD      1
 UBDSV06 SAVING              CHD IN MODEL FLOW             PACKAGE FLOW            CONNECTED TO MODEL FLOW             PACKAGE CHD_0            ON UNIT   1013 AT TIME STEP     57, STRESS PERIOD      1

 HEAD WILL BE SAVED ON UNIT 1014 AT END OF TIME STEP   57, STRESS PERIOD    1

end timestep


start timestep kper="1" kstp="58" mode="normal"

 UBDSV1 SAVING     FLOW-JA-FACE ON UNIT   1013 AT TIME STEP     58, STRESS PERIOD      1
 UBDSV06 SAVING       DATA-SPDIS IN MODEL FLOW             PACKAGE NPF             CONNECTED TO MODEL FLOW             PACKAGE NPF              ON UNIT   1013 AT TIME STEP     58, STRESS PERIOD      1
 UBDSV06 SAVING         DATA-SAT IN MODEL FLOW             PACKAGE NPF             CONNECTED TO MODEL FLOW             PACKAGE NPF              ON UNIT   1013 AT TIME STEP     58, STRESS PERIOD      1
 UBDSV06 SAVING              WEL IN MODEL FLOW             PACKAGE FLOW            CONNECTED TO MODEL FLOW             PACKAGE WEL-1            ON UNIT   1013 AT TIME STEP     58, STRESS PERIOD      1
 UBDSV06 SAVING              CHD IN MODEL FLOW             PACKAGE FLOW            CONNECTED TO MODEL FLOW             PACKAGE CHD_0            ON UNIT   1013 AT TIME STEP     58, STRESS PERIOD      1

 HEAD WILL BE SAVED ON UNIT 1014 AT END OF TIME STEP   58, STRESS PERIOD    1

end timestep


start timestep kper="1" kstp="59" mode="normal"

 UBDSV1 SAVING     FLOW-JA-FACE ON UNIT   1013 AT TIME STEP     59, STRESS PERIOD      1
 UBDSV06 SAVING       DATA-SPDIS IN MODEL FLOW             PACKAGE NPF             CONNECTED TO MODEL FLOW             PACKAGE NPF              ON UNIT   1013 AT TIME STEP     59, STRESS PERIOD      1
 UBDSV06 SAVING         DATA-SAT IN MODEL FLOW             PACKAGE NPF             CONNECTED TO MODEL FLOW             PACKAGE NPF              ON UNIT   1013 AT TIME STEP     59, STRESS PERIOD      1
 UBDSV06 SAVING              WEL IN MODEL FLOW             PACKAGE FLOW            CONNECTED TO MODEL FLOW             PACKAGE WEL-1            ON UNIT   1013 AT TIME STEP     59, STRESS PERIOD      1
 UBDSV06 SAVING              CHD IN MODEL FLOW             PACKAGE FLOW            CONNECTED TO MODEL FLOW             PACKAGE CHD_0            ON UNIT   1013 AT TIME STEP     59, STRESS PERIOD      1

 HEAD WILL BE SAVED ON UNIT 1014 AT END OF TIME STEP   59, STRESS PERIOD    1

end timestep


start timestep kper="1" kstp="60" mode="normal"

 UBDSV1 SAVING     FLOW-JA-FACE ON UNIT   1013 AT TIME STEP     60, STRESS PERIOD      1
 UBDSV06 SAVING       DATA-SPDIS IN MODEL FLOW             PACKAGE NPF             CONNECTED TO MODEL FLOW             PACKAGE NPF              ON UNIT   1013 AT TIME STEP     60, STRESS PERIOD      1
 UBDSV06 SAVING         DATA-SAT IN MODEL FLOW             PACKAGE NPF             CONNECTED TO MODEL FLOW             PACKAGE NPF              ON UNIT   1013 AT TIME STEP     60, STRESS PERIOD      1
 UBDSV06 SAVING              WEL IN MODEL FLOW             PACKAGE FLOW            CONNECTED TO MODEL FLOW             PACKAGE WEL-1            ON UNIT   1013 AT TIME STEP     60, STRESS PERIOD      1
 UBDSV06 SAVING              CHD IN MODEL FLOW             PACKAGE FLOW            CONNECTED TO MODEL FLOW             PACKAGE CHD_0            ON UNIT   1013 AT TIME STEP     60, STRESS PERIOD      1

 HEAD WILL BE SAVED ON UNIT 1014 AT END OF TIME STEP   60, STRESS PERIOD    1

end timestep


start timestep kper="1" kstp="61" mode="normal"

 UBDSV1 SAVING     FLOW-JA-FACE ON UNIT   1013 AT TIME STEP     61, STRESS PERIOD      1
 UBDSV06 SAVING       DATA-SPDIS IN MODEL FLOW             PACKAGE NPF             CONNECTED TO MODEL FLOW             PACKAGE NPF              ON UNIT   1013 AT TIME STEP     61, STRESS PERIOD      1
 UBDSV06 SAVING         DATA-SAT IN MODEL FLOW             PACKAGE NPF             CONNECTED TO MODEL FLOW             PACKAGE NPF              ON UNIT   1013 AT TIME STEP     61, STRESS PERIOD      1
 UBDSV06 SAVING              WEL IN MODEL FLOW             PACKAGE FLOW            CONNECTED TO MODEL FLOW             PACKAGE WEL-1            ON UNIT   1013 AT TIME STEP     61, STRESS PERIOD      1
 UBDSV06 SAVING              CHD IN MODEL FLOW             PACKAGE FLOW            CONNECTED TO MODEL FLOW             PACKAGE CHD_0            ON UNIT   1013 AT TIME STEP     61, STRESS PERIOD      1

 HEAD WILL BE SAVED ON UNIT 1014 AT END OF TIME STEP   61, STRESS PERIOD    1

end timestep


start timestep kper="1" kstp="62" mode="normal"

 UBDSV1 SAVING     FLOW-JA-FACE ON UNIT   1013 AT TIME STEP     62, STRESS PERIOD      1
 UBDSV06 SAVING       DATA-SPDIS IN MODEL FLOW             PACKAGE NPF             CONNECTED TO MODEL FLOW             PACKAGE NPF              ON UNIT   1013 AT TIME STEP     62, STRESS PERIOD      1
 UBDSV06 SAVING         DATA-SAT IN MODEL FLOW             PACKAGE NPF             CONNECTED TO MODEL FLOW             PACKAGE NPF              ON UNIT   1013 AT TIME STEP     62, STRESS PERIOD      1
 UBDSV06 SAVING              WEL IN MODEL FLOW             PACKAGE FLOW            CONNECTED TO MODEL FLOW             PACKAGE WEL-1            ON UNIT   1013 AT TIME STEP     62, STRESS PERIOD      1
 UBDSV06 SAVING              CHD IN MODEL FLOW             PACKAGE FLOW            CONNECTED TO MODEL FLOW             PACKAGE CHD_0            ON UNIT   1013 AT TIME STEP     62, STRESS PERIOD      1

 HEAD WILL BE SAVED ON UNIT 1014 AT END OF TIME STEP   62, STRESS PERIOD    1

end timestep


start timestep kper="1" kstp="63" mode="normal"

 UBDSV1 SAVING     FLOW-JA-FACE ON UNIT   1013 AT TIME STEP     63, STRESS PERIOD      1
 UBDSV06 SAVING       DATA-SPDIS IN MODEL FLOW             PACKAGE NPF             CONNECTED TO MODEL FLOW             PACKAGE NPF              ON UNIT   1013 AT TIME STEP     63, STRESS PERIOD      1
 UBDSV06 SAVING         DATA-SAT IN MODEL FLOW             PACKAGE NPF             CONNECTED TO MODEL FLOW             PACKAGE NPF              ON UNIT   1013 AT TIME STEP     63, STRESS PERIOD      1
 UBDSV06 SAVING              WEL IN MODEL FLOW             PACKAGE FLOW            CONNECTED TO MODEL FLOW             PACKAGE WEL-1            ON UNIT   1013 AT TIME STEP     63, STRESS PERIOD      1
 UBDSV06 SAVING              CHD IN MODEL FLOW             PACKAGE FLOW            CONNECTED TO MODEL FLOW             PACKAGE CHD_0            ON UNIT   1013 AT TIME STEP     63, STRESS PERIOD      1

 HEAD WILL BE SAVED ON UNIT 1014 AT END OF TIME STEP   63, STRESS PERIOD    1

end timestep


start timestep kper="1" kstp="64" mode="normal"

 UBDSV1 SAVING     FLOW-JA-FACE ON UNIT   1013 AT TIME STEP     64, STRESS PERIOD      1
 UBDSV06 SAVING       DATA-SPDIS IN MODEL FLOW             PACKAGE NPF             CONNECTED TO MODEL FLOW             PACKAGE NPF              ON UNIT   1013 AT TIME STEP     64, STRESS PERIOD      1
 UBDSV06 SAVING         DATA-SAT IN MODEL FLOW             PACKAGE NPF             CONNECTED TO MODEL FLOW             PACKAGE NPF              ON UNIT   1013 AT TIME STEP     64, STRESS PERIOD      1
 UBDSV06 SAVING              WEL IN MODEL FLOW             PACKAGE FLOW            CONNECTED TO MODEL FLOW             PACKAGE WEL-1            ON UNIT   1013 AT TIME STEP     64, STRESS PERIOD      1
 UBDSV06 SAVING              CHD IN MODEL FLOW             PACKAGE FLOW            CONNECTED TO MODEL FLOW             PACKAGE CHD_0            ON UNIT   1013 AT TIME STEP     64, STRESS PERIOD      1

 HEAD WILL BE SAVED ON UNIT 1014 AT END OF TIME STEP   64, STRESS PERIOD    1

end timestep


start timestep kper="1" kstp="65" mode="normal"

 UBDSV1 SAVING     FLOW-JA-FACE ON UNIT   1013 AT TIME STEP     65, STRESS PERIOD      1
 UBDSV06 SAVING       DATA-SPDIS IN MODEL FLOW             PACKAGE NPF             CONNECTED TO MODEL FLOW             PACKAGE NPF              ON UNIT   1013 AT TIME STEP     65, STRESS PERIOD      1
 UBDSV06 SAVING         DATA-SAT IN MODEL FLOW             PACKAGE NPF             CONNECTED TO MODEL FLOW             PACKAGE NPF              ON UNIT   1013 AT TIME STEP     65, STRESS PERIOD      1
 UBDSV06 SAVING              WEL IN MODEL FLOW             PACKAGE FLOW            CONNECTED TO MODEL FLOW             PACKAGE WEL-1            ON UNIT   1013 AT TIME STEP     65, STRESS PERIOD      1
 UBDSV06 SAVING              CHD IN MODEL FLOW             PACKAGE FLOW            CONNECTED TO MODEL FLOW             PACKAGE CHD_0            ON UNIT   1013 AT TIME STEP     65, STRESS PERIOD      1

 HEAD WILL BE SAVED ON UNIT 1014 AT END OF TIME STEP   65, STRESS PERIOD    1

end timestep


start timestep kper="1" kstp="66" mode="normal"

 UBDSV1 SAVING     FLOW-JA-FACE ON UNIT   1013 AT TIME STEP     66, STRESS PERIOD      1
 UBDSV06 SAVING       DATA-SPDIS IN MODEL FLOW             PACKAGE NPF             CONNECTED TO MODEL FLOW             PACKAGE NPF              ON UNIT   1013 AT TIME STEP     66, STRESS PERIOD      1
 UBDSV06 SAVING         DATA-SAT IN MODEL FLOW             PACKAGE NPF             CONNECTED TO MODEL FLOW             PACKAGE NPF              ON UNIT   1013 AT TIME STEP     66, STRESS PERIOD      1
 UBDSV06 SAVING              WEL IN MODEL FLOW             PACKAGE FLOW            CONNECTED TO MODEL FLOW             PACKAGE WEL-1            ON UNIT   1013 AT TIME STEP     66, STRESS PERIOD      1
 UBDSV06 SAVING              CHD IN MODEL FLOW             PACKAGE FLOW            CONNECTED TO MODEL FLOW             PACKAGE CHD_0            ON UNIT   1013 AT TIME STEP     66, STRESS PERIOD      1

 HEAD WILL BE SAVED ON UNIT 1014 AT END OF TIME STEP   66, STRESS PERIOD    1

end timestep


start timestep kper="1" kstp="67" mode="normal"

 UBDSV1 SAVING     FLOW-JA-FACE ON UNIT   1013 AT TIME STEP     67, STRESS PERIOD      1
 UBDSV06 SAVING       DATA-SPDIS IN MODEL FLOW             PACKAGE NPF             CONNECTED TO MODEL FLOW             PACKAGE NPF              ON UNIT   1013 AT TIME STEP     67, STRESS PERIOD      1
 UBDSV06 SAVING         DATA-SAT IN MODEL FLOW             PACKAGE NPF             CONNECTED TO MODEL FLOW             PACKAGE NPF              ON UNIT   1013 AT TIME STEP     67, STRESS PERIOD      1
 UBDSV06 SAVING              WEL IN MODEL FLOW             PACKAGE FLOW            CONNECTED TO MODEL FLOW             PACKAGE WEL-1            ON UNIT   1013 AT TIME STEP     67, STRESS PERIOD      1
 UBDSV06 SAVING              CHD IN MODEL FLOW             PACKAGE FLOW            CONNECTED TO MODEL FLOW             PACKAGE CHD_0            ON UNIT   1013 AT TIME STEP     67, STRESS PERIOD      1

 HEAD WILL BE SAVED ON UNIT 1014 AT END OF TIME STEP   67, STRESS PERIOD    1

end timestep


start timestep kper="1" kstp="68" mode="normal"

 UBDSV1 SAVING     FLOW-JA-FACE ON UNIT   1013 AT TIME STEP     68, STRESS PERIOD      1
 UBDSV06 SAVING       DATA-SPDIS IN MODEL FLOW             PACKAGE NPF             CONNECTED TO MODEL FLOW             PACKAGE NPF              ON UNIT   1013 AT TIME STEP     68, STRESS PERIOD      1
 UBDSV06 SAVING         DATA-SAT IN MODEL FLOW             PACKAGE NPF             CONNECTED TO MODEL FLOW             PACKAGE NPF              ON UNIT   1013 AT TIME STEP     68, STRESS PERIOD      1
 UBDSV06 SAVING              WEL IN MODEL FLOW             PACKAGE FLOW            CONNECTED TO MODEL FLOW             PACKAGE WEL-1            ON UNIT   1013 AT TIME STEP     68, STRESS PERIOD      1
 UBDSV06 SAVING              CHD IN MODEL FLOW             PACKAGE FLOW            CONNECTED TO MODEL FLOW             PACKAGE CHD_0            ON UNIT   1013 AT TIME STEP     68, STRESS PERIOD      1

 HEAD WILL BE SAVED ON UNIT 1014 AT END OF TIME STEP   68, STRESS PERIOD    1

end timestep


start timestep kper="1" kstp="69" mode="normal"

 UBDSV1 SAVING     FLOW-JA-FACE ON UNIT   1013 AT TIME STEP     69, STRESS PERIOD      1
 UBDSV06 SAVING       DATA-SPDIS IN MODEL FLOW             PACKAGE NPF             CONNECTED TO MODEL FLOW             PACKAGE NPF              ON UNIT   1013 AT TIME STEP     69, STRESS PERIOD      1
 UBDSV06 SAVING         DATA-SAT IN MODEL FLOW             PACKAGE NPF             CONNECTED TO MODEL FLOW             PACKAGE NPF              ON UNIT   1013 AT TIME STEP     69, STRESS PERIOD      1
 UBDSV06 SAVING              WEL IN MODEL FLOW             PACKAGE FLOW            CONNECTED TO MODEL FLOW             PACKAGE WEL-1            ON UNIT   1013 AT TIME STEP     69, STRESS PERIOD      1
 UBDSV06 SAVING              CHD IN MODEL FLOW             PACKAGE FLOW            CONNECTED TO MODEL FLOW             PACKAGE CHD_0            ON UNIT   1013 AT TIME STEP     69, STRESS PERIOD      1

 HEAD WILL BE SAVED ON UNIT 1014 AT END OF TIME STEP   69, STRESS PERIOD    1

end timestep


start timestep kper="1" kstp="70" mode="normal"

 UBDSV1 SAVING     FLOW-JA-FACE ON UNIT   1013 AT TIME STEP     70, STRESS PERIOD      1
 UBDSV06 SAVING       DATA-SPDIS IN MODEL FLOW             PACKAGE NPF             CONNECTED TO MODEL FLOW             PACKAGE NPF              ON UNIT   1013 AT TIME STEP     70, STRESS PERIOD      1
 UBDSV06 SAVING         DATA-SAT IN MODEL FLOW             PACKAGE NPF             CONNECTED TO MODEL FLOW             PACKAGE NPF              ON UNIT   1013 AT TIME STEP     70, STRESS PERIOD      1
 UBDSV06 SAVING              WEL IN MODEL FLOW             PACKAGE FLOW            CONNECTED TO MODEL FLOW             PACKAGE WEL-1            ON UNIT   1013 AT TIME STEP     70, STRESS PERIOD      1
 UBDSV06 SAVING              CHD IN MODEL FLOW             PACKAGE FLOW            CONNECTED TO MODEL FLOW             PACKAGE CHD_0            ON UNIT   1013 AT TIME STEP     70, STRESS PERIOD      1

 HEAD WILL BE SAVED ON UNIT 1014 AT END OF TIME STEP   70, STRESS PERIOD    1

end timestep


start timestep kper="1" kstp="71" mode="normal"

 UBDSV1 SAVING     FLOW-JA-FACE ON UNIT   1013 AT TIME STEP     71, STRESS PERIOD      1
 UBDSV06 SAVING       DATA-SPDIS IN MODEL FLOW             PACKAGE NPF             CONNECTED TO MODEL FLOW             PACKAGE NPF              ON UNIT   1013 AT TIME STEP     71, STRESS PERIOD      1
 UBDSV06 SAVING         DATA-SAT IN MODEL FLOW             PACKAGE NPF             CONNECTED TO MODEL FLOW             PACKAGE NPF              ON UNIT   1013 AT TIME STEP     71, STRESS PERIOD      1
 UBDSV06 SAVING              WEL IN MODEL FLOW             PACKAGE FLOW            CONNECTED TO MODEL FLOW             PACKAGE WEL-1            ON UNIT   1013 AT TIME STEP     71, STRESS PERIOD      1
 UBDSV06 SAVING              CHD IN MODEL FLOW             PACKAGE FLOW            CONNECTED TO MODEL FLOW             PACKAGE CHD_0            ON UNIT   1013 AT TIME STEP     71, STRESS PERIOD      1

 HEAD WILL BE SAVED ON UNIT 1014 AT END OF TIME STEP   71, STRESS PERIOD    1

end timestep


start timestep kper="1" kstp="72" mode="normal"

[...]
 UBDSV06 SAVING              CHD IN MODEL FLOW             PACKAGE FLOW            CONNECTED TO MODEL FLOW             PACKAGE CHD_0            ON UNIT   1013 AT TIME STEP   1323, STRESS PERIOD      2

 HEAD WILL BE SAVED ON UNIT 1014 AT END OF TIME STEP 1323, STRESS PERIOD    2

end timestep


start timestep kper="2" kstp="1324" mode="normal"

 UBDSV1 SAVING     FLOW-JA-FACE ON UNIT   1013 AT TIME STEP   1324, STRESS PERIOD      2
 UBDSV06 SAVING       DATA-SPDIS IN MODEL FLOW             PACKAGE NPF             CONNECTED TO MODEL FLOW             PACKAGE NPF              ON UNIT   1013 AT TIME STEP   1324, STRESS PERIOD      2
 UBDSV06 SAVING         DATA-SAT IN MODEL FLOW             PACKAGE NPF             CONNECTED TO MODEL FLOW             PACKAGE NPF              ON UNIT   1013 AT TIME STEP   1324, STRESS PERIOD      2
 UBDSV06 SAVING              WEL IN MODEL FLOW             PACKAGE FLOW            CONNECTED TO MODEL FLOW             PACKAGE WEL-1            ON UNIT   1013 AT TIME STEP   1324, STRESS PERIOD      2
 UBDSV06 SAVING              CHD IN MODEL FLOW             PACKAGE FLOW            CONNECTED TO MODEL FLOW             PACKAGE CHD_0            ON UNIT   1013 AT TIME STEP   1324, STRESS PERIOD      2

 HEAD WILL BE SAVED ON UNIT 1014 AT END OF TIME STEP 1324, STRESS PERIOD    2

end timestep


start timestep kper="2" kstp="1325" mode="normal"

 UBDSV1 SAVING     FLOW-JA-FACE ON UNIT   1013 AT TIME STEP   1325, STRESS PERIOD      2
 UBDSV06 SAVING       DATA-SPDIS IN MODEL FLOW             PACKAGE NPF             CONNECTED TO MODEL FLOW             PACKAGE NPF              ON UNIT   1013 AT TIME STEP   1325, STRESS PERIOD      2
 UBDSV06 SAVING         DATA-SAT IN MODEL FLOW             PACKAGE NPF             CONNECTED TO MODEL FLOW             PACKAGE NPF              ON UNIT   1013 AT TIME STEP   1325, STRESS PERIOD      2
 UBDSV06 SAVING              WEL IN MODEL FLOW             PACKAGE FLOW            CONNECTED TO MODEL FLOW             PACKAGE WEL-1            ON UNIT   1013 AT TIME STEP   1325, STRESS PERIOD      2
 UBDSV06 SAVING              CHD IN MODEL FLOW             PACKAGE FLOW            CONNECTED TO MODEL FLOW             PACKAGE CHD_0            ON UNIT   1013 AT TIME STEP   1325, STRESS PERIOD      2

 HEAD WILL BE SAVED ON UNIT 1014 AT END OF TIME STEP 1325, STRESS PERIOD    2

end timestep


start timestep kper="2" kstp="1326" mode="normal"

 UBDSV1 SAVING     FLOW-JA-FACE ON UNIT   1013 AT TIME STEP   1326, STRESS PERIOD      2
 UBDSV06 SAVING       DATA-SPDIS IN MODEL FLOW             PACKAGE NPF             CONNECTED TO MODEL FLOW             PACKAGE NPF              ON UNIT   1013 AT TIME STEP   1326, STRESS PERIOD      2
 UBDSV06 SAVING         DATA-SAT IN MODEL FLOW             PACKAGE NPF             CONNECTED TO MODEL FLOW             PACKAGE NPF              ON UNIT   1013 AT TIME STEP   1326, STRESS PERIOD      2
 UBDSV06 SAVING              WEL IN MODEL FLOW             PACKAGE FLOW            CONNECTED TO MODEL FLOW             PACKAGE WEL-1            ON UNIT   1013 AT TIME STEP   1326, STRESS PERIOD      2
 UBDSV06 SAVING              CHD IN MODEL FLOW             PACKAGE FLOW            CONNECTED TO MODEL FLOW             PACKAGE CHD_0            ON UNIT   1013 AT TIME STEP   1326, STRESS PERIOD      2

 HEAD WILL BE SAVED ON UNIT 1014 AT END OF TIME STEP 1326, STRESS PERIOD    2

end timestep


start timestep kper="2" kstp="1327" mode="normal"

 UBDSV1 SAVING     FLOW-JA-FACE ON UNIT   1013 AT TIME STEP   1327, STRESS PERIOD      2
 UBDSV06 SAVING       DATA-SPDIS IN MODEL FLOW             PACKAGE NPF             CONNECTED TO MODEL FLOW             PACKAGE NPF              ON UNIT   1013 AT TIME STEP   1327, STRESS PERIOD      2
 UBDSV06 SAVING         DATA-SAT IN MODEL FLOW             PACKAGE NPF             CONNECTED TO MODEL FLOW             PACKAGE NPF              ON UNIT   1013 AT TIME STEP   1327, STRESS PERIOD      2
 UBDSV06 SAVING              WEL IN MODEL FLOW             PACKAGE FLOW            CONNECTED TO MODEL FLOW             PACKAGE WEL-1            ON UNIT   1013 AT TIME STEP   1327, STRESS PERIOD      2
 UBDSV06 SAVING              CHD IN MODEL FLOW             PACKAGE FLOW            CONNECTED TO MODEL FLOW             PACKAGE CHD_0            ON UNIT   1013 AT TIME STEP   1327, STRESS PERIOD      2

 HEAD WILL BE SAVED ON UNIT 1014 AT END OF TIME STEP 1327, STRESS PERIOD    2

end timestep


start timestep kper="2" kstp="1328" mode="normal"

 UBDSV1 SAVING     FLOW-JA-FACE ON UNIT   1013 AT TIME STEP   1328, STRESS PERIOD      2
 UBDSV06 SAVING       DATA-SPDIS IN MODEL FLOW             PACKAGE NPF             CONNECTED TO MODEL FLOW             PACKAGE NPF              ON UNIT   1013 AT TIME STEP   1328, STRESS PERIOD      2
 UBDSV06 SAVING         DATA-SAT IN MODEL FLOW             PACKAGE NPF             CONNECTED TO MODEL FLOW             PACKAGE NPF              ON UNIT   1013 AT TIME STEP   1328, STRESS PERIOD      2
 UBDSV06 SAVING              WEL IN MODEL FLOW             PACKAGE FLOW            CONNECTED TO MODEL FLOW             PACKAGE WEL-1            ON UNIT   1013 AT TIME STEP   1328, STRESS PERIOD      2
 UBDSV06 SAVING              CHD IN MODEL FLOW             PACKAGE FLOW            CONNECTED TO MODEL FLOW             PACKAGE CHD_0            ON UNIT   1013 AT TIME STEP   1328, STRESS PERIOD      2

 HEAD WILL BE SAVED ON UNIT 1014 AT END OF TIME STEP 1328, STRESS PERIOD    2

end timestep


start timestep kper="2" kstp="1329" mode="normal"

 UBDSV1 SAVING     FLOW-JA-FACE ON UNIT   1013 AT TIME STEP   1329, STRESS PERIOD      2
 UBDSV06 SAVING       DATA-SPDIS IN MODEL FLOW             PACKAGE NPF             CONNECTED TO MODEL FLOW             PACKAGE NPF              ON UNIT   1013 AT TIME STEP   1329, STRESS PERIOD      2
 UBDSV06 SAVING         DATA-SAT IN MODEL FLOW             PACKAGE NPF             CONNECTED TO MODEL FLOW             PACKAGE NPF              ON UNIT   1013 AT TIME STEP   1329, STRESS PERIOD      2
 UBDSV06 SAVING              WEL IN MODEL FLOW             PACKAGE FLOW            CONNECTED TO MODEL FLOW             PACKAGE WEL-1            ON UNIT   1013 AT TIME STEP   1329, STRESS PERIOD      2
 UBDSV06 SAVING              CHD IN MODEL FLOW             PACKAGE FLOW            CONNECTED TO MODEL FLOW             PACKAGE CHD_0            ON UNIT   1013 AT TIME STEP   1329, STRESS PERIOD      2

 HEAD WILL BE SAVED ON UNIT 1014 AT END OF TIME STEP 1329, STRESS PERIOD    2

end timestep


start timestep kper="2" kstp="1330" mode="normal"

 UBDSV1 SAVING     FLOW-JA-FACE ON UNIT   1013 AT TIME STEP   1330, STRESS PERIOD      2
 UBDSV06 SAVING       DATA-SPDIS IN MODEL FLOW             PACKAGE NPF             CONNECTED TO MODEL FLOW             PACKAGE NPF              ON UNIT   1013 AT TIME STEP   1330, STRESS PERIOD      2
 UBDSV06 SAVING         DATA-SAT IN MODEL FLOW             PACKAGE NPF             CONNECTED TO MODEL FLOW             PACKAGE NPF              ON UNIT   1013 AT TIME STEP   1330, STRESS PERIOD      2
 UBDSV06 SAVING              WEL IN MODEL FLOW             PACKAGE FLOW            CONNECTED TO MODEL FLOW             PACKAGE WEL-1            ON UNIT   1013 AT TIME STEP   1330, STRESS PERIOD      2
 UBDSV06 SAVING              CHD IN MODEL FLOW             PACKAGE FLOW            CONNECTED TO MODEL FLOW             PACKAGE CHD_0            ON UNIT   1013 AT TIME STEP   1330, STRESS PERIOD      2

 HEAD WILL BE SAVED ON UNIT 1014 AT END OF TIME STEP 1330, STRESS PERIOD    2

end timestep


start timestep kper="2" kstp="1331" mode="normal"

 UBDSV1 SAVING     FLOW-JA-FACE ON UNIT   1013 AT TIME STEP   1331, STRESS PERIOD      2
 UBDSV06 SAVING       DATA-SPDIS IN MODEL FLOW             PACKAGE NPF             CONNECTED TO MODEL FLOW             PACKAGE NPF              ON UNIT   1013 AT TIME STEP   1331, STRESS PERIOD      2
 UBDSV06 SAVING         DATA-SAT IN MODEL FLOW             PACKAGE NPF             CONNECTED TO MODEL FLOW             PACKAGE NPF              ON UNIT   1013 AT TIME STEP   1331, STRESS PERIOD      2
 UBDSV06 SAVING              WEL IN MODEL FLOW             PACKAGE FLOW            CONNECTED TO MODEL FLOW             PACKAGE WEL-1            ON UNIT   1013 AT TIME STEP   1331, STRESS PERIOD      2
 UBDSV06 SAVING              CHD IN MODEL FLOW             PACKAGE FLOW            CONNECTED TO MODEL FLOW             PACKAGE CHD_0            ON UNIT   1013 AT TIME STEP   1331, STRESS PERIOD      2

 HEAD WILL BE SAVED ON UNIT 1014 AT END OF TIME STEP 1331, STRESS PERIOD    2

end timestep


start timestep kper="2" kstp="1332" mode="normal"

 UBDSV1 SAVING     FLOW-JA-FACE ON UNIT   1013 AT TIME STEP   1332, STRESS PERIOD      2
 UBDSV06 SAVING       DATA-SPDIS IN MODEL FLOW             PACKAGE NPF             CONNECTED TO MODEL FLOW             PACKAGE NPF              ON UNIT   1013 AT TIME STEP   1332, STRESS PERIOD      2
 UBDSV06 SAVING         DATA-SAT IN MODEL FLOW             PACKAGE NPF             CONNECTED TO MODEL FLOW             PACKAGE NPF              ON UNIT   1013 AT TIME STEP   1332, STRESS PERIOD      2
 UBDSV06 SAVING              WEL IN MODEL FLOW             PACKAGE FLOW            CONNECTED TO MODEL FLOW             PACKAGE WEL-1            ON UNIT   1013 AT TIME STEP   1332, STRESS PERIOD      2
 UBDSV06 SAVING              CHD IN MODEL FLOW             PACKAGE FLOW            CONNECTED TO MODEL FLOW             PACKAGE CHD_0            ON UNIT   1013 AT TIME STEP   1332, STRESS PERIOD      2

 HEAD WILL BE SAVED ON UNIT 1014 AT END OF TIME STEP 1332, STRESS PERIOD    2

end timestep


start timestep kper="2" kstp="1333" mode="normal"

 UBDSV1 SAVING     FLOW-JA-FACE ON UNIT   1013 AT TIME STEP   1333, STRESS PERIOD      2
 UBDSV06 SAVING       DATA-SPDIS IN MODEL FLOW             PACKAGE NPF             CONNECTED TO MODEL FLOW             PACKAGE NPF              ON UNIT   1013 AT TIME STEP   1333, STRESS PERIOD      2
 UBDSV06 SAVING         DATA-SAT IN MODEL FLOW             PACKAGE NPF             CONNECTED TO MODEL FLOW             PACKAGE NPF              ON UNIT   1013 AT TIME STEP   1333, STRESS PERIOD      2
 UBDSV06 SAVING              WEL IN MODEL FLOW             PACKAGE FLOW            CONNECTED TO MODEL FLOW             PACKAGE WEL-1            ON UNIT   1013 AT TIME STEP   1333, STRESS PERIOD      2
 UBDSV06 SAVING              CHD IN MODEL FLOW             PACKAGE FLOW            CONNECTED TO MODEL FLOW             PACKAGE CHD_0            ON UNIT   1013 AT TIME STEP   1333, STRESS PERIOD      2

 HEAD WILL BE SAVED ON UNIT 1014 AT END OF TIME STEP 1333, STRESS PERIOD    2

end timestep


start timestep kper="2" kstp="1334" mode="normal"

 UBDSV1 SAVING     FLOW-JA-FACE ON UNIT   1013 AT TIME STEP   1334, STRESS PERIOD      2
 UBDSV06 SAVING       DATA-SPDIS IN MODEL FLOW             PACKAGE NPF             CONNECTED TO MODEL FLOW             PACKAGE NPF              ON UNIT   1013 AT TIME STEP   1334, STRESS PERIOD      2
 UBDSV06 SAVING         DATA-SAT IN MODEL FLOW             PACKAGE NPF             CONNECTED TO MODEL FLOW             PACKAGE NPF              ON UNIT   1013 AT TIME STEP   1334, STRESS PERIOD      2
 UBDSV06 SAVING              WEL IN MODEL FLOW             PACKAGE FLOW            CONNECTED TO MODEL FLOW             PACKAGE WEL-1            ON UNIT   1013 AT TIME STEP   1334, STRESS PERIOD      2
 UBDSV06 SAVING              CHD IN MODEL FLOW             PACKAGE FLOW            CONNECTED TO MODEL FLOW             PACKAGE CHD_0            ON UNIT   1013 AT TIME STEP   1334, STRESS PERIOD      2

 HEAD WILL BE SAVED ON UNIT 1014 AT END OF TIME STEP 1334, STRESS PERIOD    2

end timestep


start timestep kper="2" kstp="1335" mode="normal"

 UBDSV1 SAVING     FLOW-JA-FACE ON UNIT   1013 AT TIME STEP   1335, STRESS PERIOD      2
 UBDSV06 SAVING       DATA-SPDIS IN MODEL FLOW             PACKAGE NPF             CONNECTED TO MODEL FLOW             PACKAGE NPF              ON UNIT   1013 AT TIME STEP   1335, STRESS PERIOD      2
 UBDSV06 SAVING         DATA-SAT IN MODEL FLOW             PACKAGE NPF             CONNECTED TO MODEL FLOW             PACKAGE NPF              ON UNIT   1013 AT TIME STEP   1335, STRESS PERIOD      2
 UBDSV06 SAVING              WEL IN MODEL FLOW             PACKAGE FLOW            CONNECTED TO MODEL FLOW             PACKAGE WEL-1            ON UNIT   1013 AT TIME STEP   1335, STRESS PERIOD      2
 UBDSV06 SAVING              CHD IN MODEL FLOW             PACKAGE FLOW            CONNECTED TO MODEL FLOW             PACKAGE CHD_0            ON UNIT   1013 AT TIME STEP   1335, STRESS PERIOD      2

 HEAD WILL BE SAVED ON UNIT 1014 AT END OF TIME STEP 1335, STRESS PERIOD    2

end timestep


start timestep kper="2" kstp="1336" mode="normal"

 UBDSV1 SAVING     FLOW-JA-FACE ON UNIT   1013 AT TIME STEP   1336, STRESS PERIOD      2
 UBDSV06 SAVING       DATA-SPDIS IN MODEL FLOW             PACKAGE NPF             CONNECTED TO MODEL FLOW             PACKAGE NPF              ON UNIT   1013 AT TIME STEP   1336, STRESS PERIOD      2
 UBDSV06 SAVING         DATA-SAT IN MODEL FLOW             PACKAGE NPF             CONNECTED TO MODEL FLOW             PACKAGE NPF              ON UNIT   1013 AT TIME STEP   1336, STRESS PERIOD      2
 UBDSV06 SAVING              WEL IN MODEL FLOW             PACKAGE FLOW            CONNECTED TO MODEL FLOW             PACKAGE WEL-1            ON UNIT   1013 AT TIME STEP   1336, STRESS PERIOD      2
 UBDSV06 SAVING              CHD IN MODEL FLOW             PACKAGE FLOW            CONNECTED TO MODEL FLOW             PACKAGE CHD_0            ON UNIT   1013 AT TIME STEP   1336, STRESS PERIOD      2

 HEAD WILL BE SAVED ON UNIT 1014 AT END OF TIME STEP 1336, STRESS PERIOD    2

end timestep


start timestep kper="2" kstp="1337" mode="normal"

 UBDSV1 SAVING     FLOW-JA-FACE ON UNIT   1013 AT TIME STEP   1337, STRESS PERIOD      2
 UBDSV06 SAVING       DATA-SPDIS IN MODEL FLOW             PACKAGE NPF             CONNECTED TO MODEL FLOW             PACKAGE NPF              ON UNIT   1013 AT TIME STEP   1337, STRESS PERIOD      2
 UBDSV06 SAVING         DATA-SAT IN MODEL FLOW             PACKAGE NPF             CONNECTED TO MODEL FLOW             PACKAGE NPF              ON UNIT   1013 AT TIME STEP   1337, STRESS PERIOD      2
 UBDSV06 SAVING              WEL IN MODEL FLOW             PACKAGE FLOW            CONNECTED TO MODEL FLOW             PACKAGE WEL-1            ON UNIT   1013 AT TIME STEP   1337, STRESS PERIOD      2
 UBDSV06 SAVING              CHD IN MODEL FLOW             PACKAGE FLOW            CONNECTED TO MODEL FLOW             PACKAGE CHD_0            ON UNIT   1013 AT TIME STEP   1337, STRESS PERIOD      2

 HEAD WILL BE SAVED ON UNIT 1014 AT END OF TIME STEP 1337, STRESS PERIOD    2

end timestep


start timestep kper="2" kstp="1338" mode="normal"

 UBDSV1 SAVING     FLOW-JA-FACE ON UNIT   1013 AT TIME STEP   1338, STRESS PERIOD      2
 UBDSV06 SAVING       DATA-SPDIS IN MODEL FLOW             PACKAGE NPF             CONNECTED TO MODEL FLOW             PACKAGE NPF              ON UNIT   1013 AT TIME STEP   1338, STRESS PERIOD      2
 UBDSV06 SAVING         DATA-SAT IN MODEL FLOW             PACKAGE NPF             CONNECTED TO MODEL FLOW             PACKAGE NPF              ON UNIT   1013 AT TIME STEP   1338, STRESS PERIOD      2
 UBDSV06 SAVING              WEL IN MODEL FLOW             PACKAGE FLOW            CONNECTED TO MODEL FLOW             PACKAGE WEL-1            ON UNIT   1013 AT TIME STEP   1338, STRESS PERIOD      2
 UBDSV06 SAVING              CHD IN MODEL FLOW             PACKAGE FLOW            CONNECTED TO MODEL FLOW             PACKAGE CHD_0            ON UNIT   1013 AT TIME STEP   1338, STRESS PERIOD      2

 HEAD WILL BE SAVED ON UNIT 1014 AT END OF TIME STEP 1338, STRESS PERIOD    2

end timestep


start timestep kper="2" kstp="1339" mode="normal"

 UBDSV1 SAVING     FLOW-JA-FACE ON UNIT   1013 AT TIME STEP   1339, STRESS PERIOD      2
 UBDSV06 SAVING       DATA-SPDIS IN MODEL FLOW             PACKAGE NPF             CONNECTED TO MODEL FLOW             PACKAGE NPF              ON UNIT   1013 AT TIME STEP   1339, STRESS PERIOD      2
 UBDSV06 SAVING         DATA-SAT IN MODEL FLOW             PACKAGE NPF             CONNECTED TO MODEL FLOW             PACKAGE NPF              ON UNIT   1013 AT TIME STEP   1339, STRESS PERIOD      2
 UBDSV06 SAVING              WEL IN MODEL FLOW             PACKAGE FLOW            CONNECTED TO MODEL FLOW             PACKAGE WEL-1            ON UNIT   1013 AT TIME STEP   1339, STRESS PERIOD      2
 UBDSV06 SAVING              CHD IN MODEL FLOW             PACKAGE FLOW            CONNECTED TO MODEL FLOW             PACKAGE CHD_0            ON UNIT   1013 AT TIME STEP   1339, STRESS PERIOD      2

 HEAD WILL BE SAVED ON UNIT 1014 AT END OF TIME STEP 1339, STRESS PERIOD    2

end timestep


start timestep kper="2" kstp="1340" mode="normal"

 UBDSV1 SAVING     FLOW-JA-FACE ON UNIT   1013 AT TIME STEP   1340, STRESS PERIOD      2
 UBDSV06 SAVING       DATA-SPDIS IN MODEL FLOW             PACKAGE NPF             CONNECTED TO MODEL FLOW             PACKAGE NPF              ON UNIT   1013 AT TIME STEP   1340, STRESS PERIOD      2
 UBDSV06 SAVING         DATA-SAT IN MODEL FLOW             PACKAGE NPF             CONNECTED TO MODEL FLOW             PACKAGE NPF              ON UNIT   1013 AT TIME STEP   1340, STRESS PERIOD      2
 UBDSV06 SAVING              WEL IN MODEL FLOW             PACKAGE FLOW            CONNECTED TO MODEL FLOW             PACKAGE WEL-1            ON UNIT   1013 AT TIME STEP   1340, STRESS PERIOD      2
 UBDSV06 SAVING              CHD IN MODEL FLOW             PACKAGE FLOW            CONNECTED TO MODEL FLOW             PACKAGE CHD_0            ON UNIT   1013 AT TIME STEP   1340, STRESS PERIOD      2

 HEAD WILL BE SAVED ON UNIT 1014 AT END OF TIME STEP 1340, STRESS PERIOD    2


  VOLUME BUDGET FOR ENTIRE MODEL AT END OF TIME STEP 1340, STRESS PERIOD   2
  ---------------------------------------------------------------------------------------------------

     CUMULATIVE VOLUME      L**3       RATES FOR THIS TIME STEP      L**3/T          PACKAGE NAME    
     ------------------                 ------------------------                     ----------------

           IN:                                      IN:
           ---                                      ---
                 WEL =           8.8800                   WEL =       5.9200E-03     WEL-1                            
                 CHD =           0.0000                   CHD =           0.0000     CHD_0                            

            TOTAL IN =           8.8800              TOTAL IN =       5.9200E-03

          OUT:                                     OUT:
          ----                                     ----
                 WEL =           0.0000                   WEL =           0.0000     WEL-1                            
                 CHD =           8.8800                   CHD =       5.9200E-03     CHD_0                            

           TOTAL OUT =           8.8800             TOTAL OUT =       5.9200E-03

            IN - OUT =           0.0000              IN - OUT =       1.3878E-17

 PERCENT DISCREPANCY =           0.00     PERCENT DISCREPANCY =           0.00




         TIME SUMMARY AT END OF TIME STEP 1340 IN STRESS PERIOD    2
                    SECONDS     MINUTES      HOURS       DAYS        YEARS
                    -----------------------------------------------------------
   TIME STEP LENGTH  1.0000     1.66667E-02 2.77778E-04 1.15741E-05 3.16881E-08
 STRESS PERIOD TIME  1340.0      22.333     0.37222     1.55093E-02 4.24620E-05
         TOTAL TIME  1500.0      25.000     0.41667     1.73611E-02 4.75321E-05


end timestep

