                                   MODFLOW 6
                U.S. GEOLOGICAL SURVEY MODULAR HYDROLOGIC MODEL
                             TRANSPORT MODEL (GWT)
                            VERSION 6.6.1 02/10/2025

   MODFLOW 6 compiled Feb 14 2025 13:40:10 with Intel(R) Fortran Intel(R) 64
   Compiler Classic for applications running on Intel(R) 64, Version 2021.7.0
                             Build 20220726_000000

This software has been approved for release by the U.S. Geological 
Survey (USGS). Although the software has been subjected to rigorous 
review, the USGS reserves the right to update the software as needed 
pursuant to further analysis and review. No warranty, expressed or 
implied, is made by the USGS or the U.S. Government as to the 
functionality of the software and related material nor shall the 
fact of release constitute any such warranty. Furthermore, the 
software is released on condition that neither the USGS nor the U.S. 
Government shall be held liable for any damages resulting from its 
authorized or unauthorized use. Also refer to the USGS Water 
Resources Software User Rights Notice for complete use, copyright, 
and distribution information.


As a work of the United States Government, this USGS product is 
in the public domain within the United States. You can copy, 
modify, distribute, and perform the work, even for commercial 
purposes, all without asking permission. Additionally, USGS 
waives copyright and related rights in the work worldwide 
through CC0 1.0 Universal Public Domain Dedication 
(https://creativecommons.org/publicdomain/zero/1.0/).

The following GNU Lesser General Public License (LGPL) libraries
are used in this USGS product:

    SPARSKIT version 2.0
      ilut, luson, and qsplit 
      (https://www-users.cse.umn.edu/~saad/software/SPARSKIT/)

    RCM - Reverse Cuthill McKee Ordering
      (https://people.math.sc.edu/Burkardt/f_src/rcm/rcm.html)

    BLAS - Basic Linear Algebra Subprograms Level 1
      (https://people.math.sc.edu/Burkardt/f_src/blas1_d/blas1_d.html)

    SPARSEKIT - Sparse Matrix Utility Package
      amux, dperm, dvperm, rperm, and cperm
      (https://people.sc.fsu.edu/~jburkardt/f77_src/sparsekit/sparsekit.html)

The following BSD-3 License libraries are used in this USGS product:

    Modern Fortran DAG Library
      Copyright (c) 2018, Jacob Williams
      All rights reserved.
      (https://github.com/jacobwilliams/daglib)

MODFLOW 6 compiler options: /O2 /heap-arrays:0 /fpe:0 /traceback /nologo /fpp
/c /module:win64\mod_mf6\ /object:win64\obj_mf6\

System command used to initiate simulation:
C:\Users\gross.DESKTOP-AIRQM2M\anaconda3\Scripts\mf6.exe

MODFLOW was compiled using uniform precision.

Real Variables
  KIND: 8
  TINY (smallest non-zero value):    2.225074-308
  HUGE (largest value):    1.797693+308
  PRECISION: 15
  SIZE IN BITS: 64

Integer Variables
  KIND: 4
  HUGE (largest value): 2147483647
  SIZE IN BITS: 32

Long Integer Variables
  KIND: 8
  HUGE (largest value): 9223372036854775807
  SIZE IN BITS: 64

Logical Variables
  KIND: 4
  SIZE IN BITS: 32
 
 NAMEFILE OPTIONS:
    FLOWS WILL BE SAVED TO BUDGET FILE SPECIFIED IN OUTPUT CONTROL
 END NAMEFILE OPTIONS:

 DIS -- STRUCTURED GRID DISCRETIZATION PACKAGE, VERSION 2 : 3/27/2014 - INPUT READ FROM MEMPATH: __INPUT__/GWT_P06-MF6/DIS                         


 DSP-- DISPERSION PACKAGE, VERSION 1, 1/24/2018 INPUT READ FROM MEMPATH: __INPUT__/GWT_P06-MF6/DSP                         


 Setting Discretization Options
 End Setting Discretization Options

 Setting Discretization Dimensions
    NLAY = 1
    NROW = 31
    NCOL = 31
 End Setting Discretization Dimensions

 Setting Discretization Griddata
    DELR set from input file
    DELC set from input file
    TOP set from input file
    BOTM set from input file
    IDOMAIN set from input file
 End Setting Discretization Griddata


 FMI -- FLOW MODEL INTERFACE,' VERSION 2, 8/17/2023
  FLOWS PROVIDED BY A GWF MODEL IN THIS SIMULATION

 ADV-- ADVECTION PACKAGE, VERSION 1, 8/25/2017 INPUT READ FROM UNIT 1015


 # File generated by Flopy version 3.9.1 on 04/04/2025 at 16:18:34.
 PROCESSING ADVECTION OPTIONS
    ADVECTION WEIGHTING SCHEME HAS BEEN SET TO: TVD
 END OF ADVECTION OPTIONS
 Setting DSP Options
    XT3D formulation [0=INACTIVE, 1=ACTIVE, 3=ACTIVE RHS] set to: 0
 End Setting DSP Options

 Setting DSP Griddata
    ALH set from input file
    ATH1 set from input file
 End Setting DSP Griddata

    STRT set from input file

 MST -- MOBILE STORAGE AND TRANSFER PACKAGE, VERSION 1, 7/29/2020 INPUT READ FROM UNIT 1014


 # File generated by Flopy version 3.9.1 on 04/04/2025 at 16:18:34.
 PROCESSING MOBILE STORAGE AND TRANSFER OPTIONS
 END OF MOBILE STORAGE AND TRANSFER OPTIONS
 PROCESSING GRIDDATA

   MOBILE DOMAIN POROSITY =  0.3500000    
 END PROCESSING GRIDDATA

 SSM -- SOURCE-SINK MIXING PACKAGE, VERSION 1, 8/25/2017 INPUT READ FROM UNIT 1017


 # File generated by Flopy version 3.9.1 on 04/04/2025 at 16:18:34.
 PROCESSING SSM OPTIONS
 END OF SSM OPTIONS
 PROCESSING SOURCES
 AUX SOURCE DETECTED.
    USING AUX COLUMN 1 IN PACKAGE WEL-1
 END PROCESSING SOURCES
 OPTIONAL FILEINPUT BLOCK NOT FOUND.  CONTINUING.

The observation utility is active for "GWT_P06-MF6"
 # File generated by Flopy version 3.9.1 on 04/04/2025 at 16:18:34.

Processing observation options:


      THE LAST TIME STEP WILL BE PRINTED
      THE LAST TIME STEP WILL BE PRINTED
 # File generated by Flopy version 3.9.1 on 04/04/2025 at 16:18:34.

 PROCESSING OC OPTIONS

    BUDGET INFORMATION WILL BE WRITTEN TO:
      UNIT NUMBER: 1029
      FILE NAME: gwt_p06-mf6.cbc

 OPENED gwt_p06-mf6.cbc
 FILE TYPE:DATA(BINARY)   UNIT 1029   STATUS:REPLACE             
 FORMAT:UNFORMATTED            ACCESS:STREAM              
 ACTION:READWRITE           

    CONCENTRATION INFORMATION WILL BE WRITTEN TO:
      UNIT NUMBER: 1030
      FILE NAME: gwt_p06-mf6.ucn

 OPENED gwt_p06-mf6.ucn
 FILE TYPE:DATA(BINARY)   UNIT 1030   STATUS:REPLACE             
 FORMAT:UNFORMATTED            ACCESS:STREAM              
 ACTION:READWRITE           

 END OF OC OPTIONS

start timestep kper="1" kstp="1" mode="normal"


 BEGIN READING OUTPUT CONTROL FOR STRESS PERIOD 1
      ALL TIME STEPS WILL BE SAVED
      ALL TIME STEPS WILL BE SAVED
      ALL TIME STEPS WILL BE PRINTED
      ALL TIME STEPS WILL BE PRINTED

 END READING OUTPUT CONTROL FOR STRESS PERIOD 1
 UBDSV1 SAVING  STORAGE-AQUEOUS ON UNIT   1029 AT TIME STEP      1, STRESS PERIOD      1
 UBDSV1 SAVING     FLOW-JA-FACE ON UNIT   1029 AT TIME STEP      1, STRESS PERIOD      1
 UBDSV06 SAVING  SOURCE-SINK MIX IN MODEL GWT_P06-MF6      PACKAGE GWT_P06-MF6     CONNECTED TO MODEL GWT_P06-MF6      PACKAGE SSM              ON UNIT   1029 AT TIME STEP      1, STRESS PERIOD      1
1
  CONCENTRATION IN LAYER   1 AT END OF TIME STEP   1 IN STRESS PERIOD    1
  ---------------------------------------------------------------------------

                1               2               3               4               5               6               7               8               9              10
               11              12              13              14              15              16              17              18              19              20
               21              22              23              24              25              26              27              28              29              30
               31
 ................................................................................................................................................................................................................................................................................................................................................................................................................................................................................................................
   1      0.00000        3.968230E-60    6.957473E-57    6.253031E-54    3.723674E-51    1.622563E-48    5.430259E-46    1.431481E-43    3.009143E-41    5.063103E-39
         6.793336E-37    7.162037E-35    5.668929E-33    2.796176E-31   -3.683574E-31   -3.182624E-29   -3.702268E-31    2.783230E-31    5.278875E-33    4.805019E-35
         7.138135E-38   -3.928289E-39   -5.168211E-41   -3.504142E-43   -1.693260E-45   -7.610545E-48   -3.257982E-50   -1.021625E-52   -1.902804E-55   -1.636914E-58
          0.00000    
   2     3.968230E-60    6.586535E-57    5.904309E-54    3.573625E-51    1.609384E-48    5.662071E-46    1.597143E-43    3.661162E-41    6.858510E-39    1.049715E-36
         1.304831E-34    1.297215E-32    9.877002E-31    4.825677E-29   -5.889746E-29   -5.320853E-27   -5.915061E-29    4.809863E-29    9.330876E-31    9.253246E-33
         2.310476E-35   -7.252210E-37   -1.126994E-38   -8.727362E-41   -4.765418E-43   -2.412538E-45   -1.243962E-47   -5.209875E-50   -1.473484E-52   -2.537087E-55
        -2.218624E-58
   3     6.957473E-57    5.904309E-54    3.520221E-51    1.601179E-48    5.805740E-46    1.719673E-43    4.216217E-41    8.607927E-39    1.464894E-36    2.071597E-34
         2.416225E-32    2.288835E-30    1.691237E-28    8.258661E-27   -9.271838E-27   -8.813371E-25   -9.303494E-27    8.242045E-27    1.623778E-28    1.761886E-30
         6.904555E-33   -1.134661E-34   -2.206336E-36   -1.954600E-38   -1.179358E-40   -6.216529E-43   -3.431091E-45   -1.730352E-47   -6.546079E-50   -1.702273E-52
        -2.828503E-55
   4     6.253031E-54    3.573625E-51    1.601179E-48    5.851374E-46    1.783052E-43    4.584299E-41    9.998172E-39    1.851608E-36    2.905157E-34    3.841807E-32
         4.245564E-30    3.862528E-28    2.789298E-26    1.373743E-24   -1.403895E-24   -1.415980E-22   -1.407228E-24    1.372435E-24    2.721868E-26    3.229924E-28
         1.815175E-30   -1.326305E-32   -3.773876E-34   -3.897001E-36   -2.622412E-38   -1.418594E-40   -7.621913E-43   -4.143663E-45   -1.910669E-47   -6.640586E-50
        -1.639412E-52
   5     3.723674E-51    1.609384E-48    5.805740E-46    1.783052E-43    4.713059E-41    1.076962E-38    2.128236E-36    3.628219E-34    5.311119E-32    6.630871E-30
         6.995931E-28    6.150242E-26    4.365225E-24    2.189775E-22   -2.007929E-22   -2.173067E-20   -2.010160E-22    2.189217E-22    4.319021E-24    5.571336E-26
         4.170694E-28   -5.370862E-31   -5.349512E-32   -6.741632E-34   -5.185234E-36   -3.004122E-38   -1.541698E-40   -7.981261E-43   -3.963361E-45   -1.658660E-47
        -5.375839E-50
   6     1.622563E-48    5.662071E-46    1.719673E-43    4.584299E-41    1.076962E-38    2.228872E-36    4.051235E-34    6.434752E-32    8.873178E-30    1.053843E-27
         1.067696E-25    9.109916E-24    6.381500E-22    3.298419E-20   -2.659651E-20   -3.136472E-18   -2.658357E-20    3.297998E-20    6.361479E-22    8.798246E-24
         8.288587E-26    2.546877E-28   -5.443884E-30   -9.612969E-32   -8.737157E-34   -5.721399E-36   -3.051937E-38   -1.479294E-40   -6.939848E-43   -3.034005E-45
        -1.139278E-47
   7     5.430259E-46    1.597143E-43    4.216217E-41    9.998172E-39    2.128236E-36    4.051235E-34    6.857342E-32    1.024897E-29    1.341731E-27    1.524833E-25
         1.489611E-23    1.236740E-21    8.567281E-20    4.629949E-18   -3.188519E-18   -1.761692E-16   -3.187781E-18    4.629729E-18    8.564060E-20    1.226424E-21
         1.383508E-23    9.065806E-26   -1.517780E-28   -9.990942E-30   -1.172024E-31   -9.001827E-34   -5.420984E-36   -2.769286E-38   -1.272876E-40   -5.408469E-43
        -2.095293E-45
   8     1.431481E-43    3.661162E-41    8.607927E-39    1.851608E-36    3.628219E-34    6.434752E-32    1.024897E-29    1.453307E-27    1.817539E-25    1.985012E-23
         1.874227E-21    1.514853E-19    1.035664E-17   -1.447400E-17   -3.502308E-16    1.706037E-15   -3.502115E-16   -1.448563E-17    1.035429E-17    1.514196E-19
         1.851791E-21    1.757999E-23    7.967603E-26   -4.324187E-28   -1.069829E-29   -1.052640E-31   -7.472478E-34   -4.355698E-36   -2.205188E-38   -1.001525E-40
        -4.147797E-43
   9     3.009143E-41    6.858510E-39    1.464894E-36    2.905157E-34    5.311119E-32    8.873178E-30    1.341731E-27    1.817539E-25    2.182094E-23    2.296606E-21
         2.096907E-19    1.646975E-17   -2.894652E-17   -8.930390E-16    7.961455E-15    1.611537E-13    7.960192E-15   -8.934683E-16   -2.915861E-17    1.646066E-17
         2.096791E-19    2.264584E-21    1.876876E-23    7.450522E-26   -2.832525E-28   -7.048243E-30   -6.714272E-32   -4.714975E-34   -2.772823E-36   -1.438119E-38
        -6.779963E-41
  10     5.063103E-39    1.049715E-36    2.071597E-34    3.841807E-32    6.630871E-30    1.053843E-27    1.524833E-25    1.985012E-23    2.296606E-21    2.332562E-19
         2.056098E-17   -4.281938E-17   -1.414273E-15    2.208945E-14    6.992299E-13    6.052510E-13    6.991726E-13    2.209494E-14   -1.421076E-15   -4.388967E-17
         2.054506E-17    2.333447E-19    2.262858E-21    1.732017E-23    8.108772E-26    1.094102E-28   -1.972607E-30   -2.444606E-32   -1.886430E-34   -1.183629E-36
        -6.555241E-39
  11     6.793336E-37    1.304831E-34    2.416225E-32    4.245564E-30    6.995931E-28    1.067696E-25    1.489611E-23    1.874227E-21    2.096907E-19    2.056098E-17
        -4.864990E-17   -1.742590E-15    3.848072E-14    1.674422E-12    1.724212E-11    6.350986E-11    1.724335E-11    1.673607E-12    3.870302E-14   -1.772225E-15
        -5.056224E-17    2.054458E-17    2.097158E-19    1.848203E-21    1.360030E-23    7.686820E-26    3.400039E-28    1.108131E-30    1.522786E-33   -1.337442E-35
        -1.590068E-37
  12     7.162037E-35    1.297215E-32    2.288835E-30    3.862528E-28    6.150242E-26    9.109916E-24    1.236740E-21    1.514853E-19    1.646975E-17   -4.281938E-17
        -1.742590E-15    4.592550E-14    2.501345E-12    5.578463E-11    1.236318E-09    1.772637E-07    1.236302E-09    5.579968E-11    2.495141E-12    4.665211E-14
        -1.777043E-15   -4.412799E-17    1.645887E-17    1.514261E-19    1.223808E-21    8.704506E-24    5.382789E-26    3.012249E-28    1.569595E-30    7.793080E-33
         3.789532E-35
  13     5.668929E-33    9.877002E-31    1.691237E-28    2.789298E-26    4.365225E-24    6.381500E-22    8.567281E-20    1.035664E-17   -2.894652E-17   -1.414273E-15
         3.848072E-14    2.501345E-12    7.578887E-11    3.397546E-09    8.754112E-07    8.180984E-05    8.754113E-07    3.397375E-09    7.585610E-11    2.493517E-12
         3.880579E-14   -1.423969E-15   -2.925049E-17    1.035351E-17    8.563607E-20    6.355883E-22    4.303996E-24    2.698499E-26    1.599289E-28    9.121752E-31
         5.119397E-33
  14     2.796176E-31    4.825677E-29    8.258661E-27    1.373743E-24    2.189775E-22    3.298419E-20    4.629949E-18   -1.447400E-17   -8.930390E-16    2.208945E-14
         1.674422E-12    5.578463E-11    3.397546E-09    1.391045E-06    2.545553E-04    2.488358E-02    2.545553E-04    1.391045E-06    3.397321E-09    5.580728E-11
         1.673245E-12    2.210245E-14   -8.936897E-16   -1.449175E-17    4.629680E-18    3.297977E-20    2.189233E-22    1.372221E-24    8.238503E-27    4.806140E-29
         2.780007E-31
  15    -3.683574E-31   -5.889746E-29   -9.271838E-27   -1.403895E-24   -2.007929E-22   -2.659651E-20   -3.188519E-18   -3.502308E-16    7.961455E-15    6.992299E-13
         1.724212E-11    1.236318E-09    8.754112E-07    2.545553E-04    4.246085E-02     2.62250        4.246085E-02    2.545553E-04    8.754114E-07    1.236296E-09
         1.724376E-11    6.991580E-13    7.959891E-15   -3.502086E-16   -3.187667E-18   -2.658177E-20   -2.010426E-22   -1.407614E-24   -9.307009E-27   -5.917748E-29
        -3.704134E-31
  16    -3.182624E-29   -5.320853E-27   -8.813371E-25   -1.415980E-22   -2.173067E-20   -3.136472E-18   -1.761692E-16    1.706037E-15    1.611537E-13    6.052510E-13
         6.350986E-11    1.772637E-07    8.180984E-05    2.488358E-02     2.62250         27.8626         2.62250        2.488358E-02    8.180984E-05    1.772637E-07
         6.350983E-11    6.052503E-13    1.611537E-13    1.706037E-15   -1.761692E-16   -3.136472E-18   -2.173068E-20   -1.415981E-22   -8.813376E-25   -5.320856E-27
        -3.182626E-29
  17    -3.702268E-31   -5.915061E-29   -9.303494E-27   -1.407228E-24   -2.010160E-22   -2.658357E-20   -3.187781E-18   -3.502115E-16    7.960192E-15    6.991726E-13
         1.724335E-11    1.236302E-09    8.754113E-07    2.545553E-04    4.246085E-02     2.62250        4.246085E-02    2.545553E-04    8.754112E-07    1.236317E-09
         1.724212E-11    6.992299E-13    7.961455E-15   -3.502308E-16   -3.188521E-18   -2.659654E-20   -2.007932E-22   -1.403898E-24   -9.271858E-27   -5.889759E-29
        -3.683582E-31
  18     2.783230E-31    4.809863E-29    8.242045E-27    1.372435E-24    2.189217E-22    3.297998E-20    4.629729E-18   -1.448563E-17   -8.934683E-16    2.209494E-14
         1.673607E-12    5.579968E-11    3.397375E-09    1.391045E-06    2.545553E-04    2.488358E-02    2.545553E-04    1.391045E-06    3.397547E-09    5.578463E-11
         1.674422E-12    2.208945E-14   -8.930390E-16   -1.447400E-17    4.629949E-18    3.298419E-20    2.189775E-22    1.373743E-24    8.258661E-27    4.825676E-29
         2.796176E-31
  19     5.278875E-33    9.330876E-31    1.623778E-28    2.721868E-26    4.319021E-24    6.361479E-22    8.564060E-20    1.035429E-17   -2.915861E-17   -1.421076E-15
         3.870302E-14    2.495141E-12    7.585610E-11    3.397321E-09    8.754114E-07    8.180984E-05    8.754112E-07    3.397547E-09    7.578887E-11    2.501345E-12
         3.848072E-14   -1.414273E-15   -2.894652E-17    1.035664E-17    8.567281E-20    6.381499E-22    4.365225E-24    2.789298E-26    1.691237E-28    9.877002E-31
         5.668929E-33
  20     4.805019E-35    9.253246E-33    1.761886E-30    3.229924E-28    5.571336E-26    8.798246E-24    1.226424E-21    1.514196E-19    1.646066E-17   -4.388967E-17
        -1.772225E-15    4.665211E-14    2.493517E-12    5.580728E-11    1.236296E-09    1.772637E-07    1.236317E-09    5.578463E-11    2.501345E-12    4.592550E-14
        -1.742590E-15   -4.281938E-17    1.646975E-17    1.514853E-19    1.236740E-21    9.109916E-24    6.150242E-26    3.862527E-28    2.288835E-30    1.297215E-32
         7.162037E-35
  21     7.138135E-38    2.310476E-35    6.904555E-33    1.815175E-30    4.170694E-28    8.288587E-26    1.383508E-23    1.851791E-21    2.096791E-19    2.054506E-17
        -5.056224E-17   -1.777043E-15    3.880579E-14    1.673245E-12    1.724376E-11    6.350983E-11    1.724212E-11    1.674422E-12    3.848072E-14   -1.742590E-15
        -4.864990E-17    2.056098E-17    2.096907E-19    1.874227E-21    1.489611E-23    1.067696E-25    6.995931E-28    4.245564E-30    2.416225E-32    1.304831E-34
         6.793336E-37
  22    -3.928289E-39   -7.252210E-37   -1.134661E-34   -1.326305E-32   -5.370862E-31    2.546877E-28    9.065806E-26    1.757999E-23    2.264584E-21    2.333447E-19
         2.054458E-17   -4.412799E-17   -1.423969E-15    2.210245E-14    6.991580E-13    6.052503E-13    6.992299E-13    2.208945E-14   -1.414273E-15   -4.281938E-17
         2.056098E-17    2.332562E-19    2.296606E-21    1.985012E-23    1.524833E-25    1.053843E-27    6.630871E-30    3.841807E-32    2.071597E-34    1.049715E-36
         5.063103E-39
  23    -5.168211E-41   -1.126994E-38   -2.206336E-36   -3.773876E-34   -5.349512E-32   -5.443884E-30   -1.517780E-28    7.967603E-26    1.876876E-23    2.262858E-21
         2.097158E-19    1.645887E-17   -2.925049E-17   -8.936897E-16    7.959891E-15    1.611537E-13    7.961455E-15   -8.930390E-16   -2.894652E-17    1.646975E-17
         2.096907E-19    2.296606E-21    2.182094E-23    1.817539E-25    1.341731E-27    8.873178E-30    5.311120E-32    2.905157E-34    1.464894E-36    6.858510E-39
         3.009143E-41
  24    -3.504142E-43   -8.727362E-41   -1.954600E-38   -3.897001E-36   -6.741632E-34   -9.612969E-32   -9.990942E-30   -4.324187E-28    7.450522E-26    1.732017E-23
         1.848203E-21    1.514261E-19    1.035351E-17   -1.449175E-17   -3.502086E-16    1.706037E-15   -3.502308E-16   -1.447400E-17    1.035664E-17    1.514853E-19
         1.874227E-21    1.985012E-23    1.817539E-25    1.453307E-27    1.024897E-29    6.434752E-32    3.628219E-34    1.851608E-36    8.607927E-39    3.661162E-41
         1.431481E-43
  25    -1.693260E-45   -4.765418E-43   -1.179358E-40   -2.622412E-38   -5.185234E-36   -8.737157E-34   -1.172024E-31   -1.069829E-29   -2.832525E-28    8.108772E-26
         1.360030E-23    1.223808E-21    8.563607E-20    4.629680E-18   -3.187667E-18   -1.761692E-16   -3.188521E-18    4.629949E-18    8.567281E-20    1.236740E-21
         1.489611E-23    1.524833E-25    1.341731E-27    1.024897E-29    6.857342E-32    4.051235E-34    2.128236E-36    9.998172E-39    4.216217E-41    1.597143E-43
         5.430259E-46
  26    -7.610545E-48   -2.412538E-45   -6.216529E-43   -1.418594E-40   -3.004122E-38   -5.721399E-36   -9.001827E-34   -1.052640E-31   -7.048243E-30    1.094102E-28
         7.686820E-26    8.704506E-24    6.355883E-22    3.297977E-20   -2.658177E-20   -3.136472E-18   -2.659654E-20    3.298419E-20    6.381499E-22    9.109916E-24
         1.067696E-25    1.053843E-27    8.873178E-30    6.434752E-32    4.051235E-34    2.228872E-36    1.076962E-38    4.584299E-41    1.719673E-43    5.662071E-46
         1.622563E-48
  27    -3.257982E-50   -1.243962E-47   -3.431091E-45   -7.621913E-43   -1.541698E-40   -3.051937E-38   -5.420984E-36   -7.472478E-34   -6.714272E-32   -1.972607E-30
         3.400039E-28    5.382789E-26    4.303996E-24    2.189233E-22   -2.010426E-22   -2.173068E-20   -2.007932E-22    2.189775E-22    4.365225E-24    6.150242E-26
         6.995931E-28    6.630871E-30    5.311120E-32    3.628219E-34    2.128236E-36    1.076962E-38    4.713059E-41    1.783052E-43    5.805740E-46    1.609384E-48
         3.723674E-51
  28    -1.021625E-52   -5.209875E-50   -1.730352E-47   -4.143663E-45   -7.981261E-43   -1.479294E-40   -2.769286E-38   -4.355698E-36   -4.714975E-34   -2.444606E-32
         1.108131E-30    3.012249E-28    2.698499E-26    1.372221E-24   -1.407614E-24   -1.415981E-22   -1.403898E-24    1.373743E-24    2.789298E-26    3.862527E-28
         4.245564E-30    3.841807E-32    2.905157E-34    1.851608E-36    9.998172E-39    4.584299E-41    1.783052E-43    5.851374E-46    1.601179E-48    3.573625E-51
         6.253031E-54
  29    -1.902804E-55   -1.473484E-52   -6.546079E-50   -1.910669E-47   -3.963361E-45   -6.939848E-43   -1.272876E-40   -2.205188E-38   -2.772823E-36   -1.886430E-34
         1.522786E-33    1.569595E-30    1.599289E-28    8.238503E-27   -9.307009E-27   -8.813376E-25   -9.271858E-27    8.258661E-27    1.691237E-28    2.288835E-30
         2.416225E-32    2.071597E-34    1.464894E-36    8.607927E-39    4.216217E-41    1.719673E-43    5.805740E-46    1.601179E-48    3.520221E-51    5.904309E-54
         6.957473E-57
  30    -1.636914E-58   -2.537087E-55   -1.702273E-52   -6.640586E-50   -1.658660E-47   -3.034005E-45   -5.408469E-43   -1.001525E-40   -1.438119E-38   -1.183629E-36
        -1.337442E-35    7.793080E-33    9.121752E-31    4.806140E-29   -5.917748E-29   -5.320856E-27   -5.889759E-29    4.825676E-29    9.877002E-31    1.297215E-32
         1.304831E-34    1.049715E-36    6.858510E-39    3.661162E-41    1.597143E-43    5.662071E-46    1.609384E-48    3.573625E-51    5.904309E-54    6.586535E-57
         3.968230E-60
  31      0.00000       -2.218624E-58   -2.828503E-55   -1.639412E-52   -5.375839E-50   -1.139278E-47   -2.095293E-45   -4.147797E-43   -6.779963E-41   -6.555241E-39
        -1.590068E-37    3.789532E-35    5.119397E-33    2.780007E-31   -3.704134E-31   -3.182626E-29   -3.683582E-31    2.796176E-31    5.668929E-33    7.162037E-35
         6.793336E-37    5.063103E-39    3.009143E-41    1.431481E-43    5.430259E-46    1.622563E-48    3.723674E-51    6.253031E-54    6.957473E-57    3.968230E-60
          0.00000    

 CONCENTRATION WILL BE SAVED ON UNIT 1030 AT END OF TIME STEP    1, STRESS PERIOD    1


  MASS BUDGET FOR ENTIRE MODEL AT END OF TIME STEP    1, STRESS PERIOD   1
  ---------------------------------------------------------------------------------------------------

     CUMULATIVE MASS      M       RATES FOR THIS TIME STEP      M/T          PACKAGE NAME    
     ------------------                 ------------------------                     ----------------

           IN:                                      IN:
           ---                                      ---
     STORAGE-AQUEOUS =       2.0980E-07       STORAGE-AQUEOUS =       8.2770E-09     MST                              
                 WEL =   219000000.0000                   WEL =     8640000.0000     SSM_WEL-1                        
                 CHD =           0.0000                   CHD =           0.0000     SSM_CHD-1                        

            TOTAL IN =   219000000.0000              TOTAL IN =     8640000.0000

          OUT:                                     OUT:
          ----                                     ----
     STORAGE-AQUEOUS =   219000000.0000       STORAGE-AQUEOUS =     8640000.0000     MST                              
                 WEL =           0.0000                   WEL =           0.0000     SSM_WEL-1                        
                 CHD =       6.7362E-26                   CHD =       2.6576E-27     SSM_CHD-1                        

           TOTAL OUT =   219000000.0000             TOTAL OUT =     8640000.0000

            IN - OUT =       8.4341E-06              IN - OUT =       3.3155E-07

 PERCENT DISCREPANCY =           0.00     PERCENT DISCREPANCY =           0.00




         TIME SUMMARY AT END OF TIME STEP    1 IN STRESS PERIOD    1
                    SECONDS     MINUTES      HOURS       DAYS        YEARS
                    -----------------------------------------------------------
   TIME STEP LENGTH 2.19000E+06  36500.      608.33      25.347     6.93969E-02
 STRESS PERIOD TIME 2.19000E+06  36500.      608.33      25.347     6.93969E-02
         TOTAL TIME 2.19000E+06  36500.      608.33      25.347     6.93969E-02


end timestep


start timestep kper="1" kstp="2" mode="normal"

 UBDSV1 SAVING  STORAGE-AQUEOUS ON UNIT   1029 AT TIME STEP      2, STRESS PERIOD      1
 UBDSV1 SAVING     FLOW-JA-FACE ON UNIT   1029 AT TIME STEP      2, STRESS PERIOD      1
 UBDSV06 SAVING  SOURCE-SINK MIX IN MODEL GWT_P06-MF6      PACKAGE GWT_P06-MF6     CONNECTED TO MODEL GWT_P06-MF6      PACKAGE SSM              ON UNIT   1029 AT TIME STEP      2, STRESS PERIOD      1
1
  CONCENTRATION IN LAYER   1 AT END OF TIME STEP   2 IN STRESS PERIOD    1
  ---------------------------------------------------------------------------

                1               2               3               4               5               6               7               8               9              10
               11              12              13              14              15              16              17              18              19              20
               21              22              23              24              25              26              27              28              29              30
               31
 ................................................................................................................................................................................................................................................................................................................................................................................................................................................................................................................
   1      0.00000        8.089783E-59    1.348229E-55    1.148767E-52    6.466468E-50    2.654696E-47    8.339042E-45    2.054351E-42    4.015197E-40    6.243091E-38
         7.683632E-36    7.366277E-34    5.262720E-32    2.381418E-30    1.423571E-29   -2.129565E-28    1.422291E-29    2.373036E-30    5.131201E-32    8.114405E-34
         1.038664E-35    1.125044E-37    9.491661E-40    5.729100E-42    2.351229E-44    5.913548E-47    4.452894E-50   -2.279997E-52   -7.674211E-55   -8.281227E-58
          0.00000    
   2     8.089783E-59    1.277691E-55    1.086379E-52    6.218606E-50    2.639897E-47    8.722200E-45    2.300701E-42    4.907259E-40    8.503377E-38    1.195295E-35
         1.352654E-33    1.211337E-31    8.223945E-30    3.632370E-28    2.481631E-27   -3.029499E-26    2.479994E-27    3.622575E-28    8.069928E-30    1.323935E-31
         1.842726E-33    2.246646E-35    2.163587E-37    1.501781E-39    7.311500E-42    2.369396E-44    3.742934E-47   -5.596551E-50   -4.547839E-52   -1.059856E-54
        -1.076401E-57
   3     1.348229E-55    1.086379E-52    6.125812E-50    2.626612E-47    8.944842E-45    2.477934E-42    5.654328E-40    1.068289E-37    1.670929E-35    2.153674E-33
         2.265556E-31    1.910343E-29    1.239051E-27    5.362131E-26    4.272969E-25   -4.144117E-24    4.271014E-25    5.352151E-26    1.223651E-27    2.030253E-29
         2.979667E-31    4.014223E-33    4.379683E-35    3.480901E-37    1.981265E-39    8.027953E-42    2.065376E-44    1.478311E-47   -1.214383E-49   -5.633498E-52
        -1.200695E-54
   4     1.148767E-52    6.218606E-50    2.626612E-47    9.015575E-45    2.569611E-42    6.149789E-40    1.241547E-37    2.114309E-35    3.026082E-33    3.614128E-31
         3.561305E-29    2.841417E-27    1.764548E-25    7.488985E-24    7.118847E-23   -5.254372E-22    7.116810E-23    7.481026E-24    1.752821E-25    2.885512E-27
         4.303413E-29    6.283196E-31    7.764142E-33    7.064833E-35    4.647235E-37    2.268346E-39    8.051221E-42    1.793881E-44    6.558695E-48   -1.236651E-49
        -5.262724E-52
   5     6.466468E-50    2.639897E-47    8.944842E-45    2.569611E-42    6.323116E-40    1.337704E-37    2.431607E-35    3.783584E-33    5.007092E-31    5.583545E-29
         5.178788E-27    3.916996E-25    2.325333E-23    9.641357E-22    1.130471E-20   -5.910399E-20    1.130311E-20    9.637473E-22    2.319817E-23    3.799330E-25
         5.459544E-27    8.306685E-29    1.167249E-30    1.229238E-32    9.325930E-35    5.327864E-37    2.363541E-39    7.970429E-42    1.854917E-44    1.879548E-47
        -5.652966E-50
   6     2.654696E-47    8.722200E-45    2.477934E-42    6.149789E-40    1.337704E-37    2.547059E-35    4.226965E-33    6.073540E-31    7.489335E-29    7.836268E-27
         6.854428E-25    4.905642E-23    2.763485E-21    1.103634E-19    1.685267E-18   -5.424442E-18    1.685232E-18    1.103502E-19    2.759248E-21    4.853016E-23
         6.321356E-25    8.904375E-27    1.403719E-28    1.756102E-30    1.559523E-32    1.031912E-34    5.410299E-37    2.310213E-39    8.003338E-42    2.188208E-44
         4.427368E-47
   7     8.339042E-45    2.300701E-42    5.654328E-40    1.241547E-37    2.431607E-35    4.226965E-33    6.474819E-31    8.660084E-29    1.000209E-26    9.840658E-25
         8.104570E-23    5.449378E-21    2.861235E-19    1.055294E-17   -1.915116E-17   -3.099800E-16   -1.914965E-17    1.055236E-17    2.861073E-19    5.429565E-21
         7.885196E-23    8.399850E-25    1.248191E-26    1.904844E-28    2.057271E-30    1.599728E-32    9.730590E-35    4.899904E-37    2.097546E-39    7.702880E-42
         2.433661E-44
   8     2.054351E-42    4.907259E-40    1.068289E-37    2.114309E-35    3.783584E-33    6.073540E-31    8.660084E-29    1.084250E-26    1.175872E-24    1.086491E-22
         8.369991E-21    5.203099E-19    2.444805E-17   -7.117037E-17   -1.669666E-15    5.788027E-15   -1.669620E-15   -7.119638E-17    2.444557E-17    5.207504E-19
         8.317660E-21    1.033825E-22    9.348623E-25    1.427524E-26    1.959337E-28    1.859553E-30    1.328327E-32    7.748461E-35    3.869124E-37    1.694733E-39
         6.605549E-42
   9     4.015197E-40    8.503377E-38    1.670929E-35    3.026082E-33    5.007092E-31    7.489335E-29    1.000209E-26    1.175872E-24    1.196650E-22    1.032246E-20
         7.329102E-19    4.071393E-17   -1.568735E-16   -5.281537E-15   -4.357499E-14    4.223944E-13   -4.357834E-14   -5.282325E-15   -1.573067E-16    4.072094E-17
         7.349227E-19    1.023020E-20    1.123092E-22    9.225183E-25    1.280655E-26    1.510692E-28    1.295478E-30    8.802257E-33    5.060033E-35    2.555264E-37
         1.156571E-39
  10     6.243091E-38    1.195295E-35    2.153674E-33    3.614128E-31    5.583545E-29    7.836268E-27    9.840658E-25    1.086491E-22    1.032246E-20    8.198209E-19
         5.196563E-17   -2.457427E-16   -1.033710E-14   -1.357736E-13    1.018339E-12    2.093627E-11    1.018194E-12   -1.357561E-13   -1.035318E-14   -2.475751E-16
         5.200809E-17    8.231478E-19    1.022424E-20    1.027164E-22    8.170765E-25    9.185968E-27    9.059093E-29    7.097875E-31    4.654049E-33    2.670487E-35
         1.378446E-37
  11     7.683632E-36    1.352654E-33    2.265556E-31    3.561305E-29    5.178788E-27    6.854428E-25    8.104570E-23    8.369991E-21    7.329102E-19    5.196563E-17
        -2.842679E-16   -1.417602E-14   -2.380495E-13    1.350234E-12    1.172932E-10    1.642668E-09    1.172960E-10    1.348317E-12   -2.374984E-13   -1.425343E-14
        -2.872710E-16    5.201392E-17    7.352970E-19    8.308493E-21    7.829890E-23    6.179576E-25    5.565076E-27    4.584541E-29    3.278285E-31    2.079638E-33
         1.200466E-35
  12     7.366277E-34    1.211337E-31    1.910343E-29    2.841417E-27    3.916996E-25    4.905642E-23    5.449378E-21    5.203099E-19    4.071393E-17   -2.457427E-16
        -1.417602E-14   -2.831318E-13    1.751351E-12    2.959266E-10    1.345519E-08    1.162956E-06    1.345516E-08    2.959592E-10    1.737519E-12   -2.813740E-13
        -1.426638E-14   -2.479823E-16    4.072441E-17    5.209402E-19    5.424764E-21    4.833976E-23    3.757157E-25    2.904388E-27    2.084279E-29    1.382119E-31
         8.589224E-34
  13     5.262720E-32    8.223945E-30    1.239051E-27    1.764548E-25    2.325333E-23    2.763485E-21    2.861235E-19    2.444805E-17   -1.568735E-16   -1.033710E-14
        -2.380495E-13    1.751351E-12    3.928671E-10    3.274152E-08    5.691848E-06    4.554383E-04    5.691849E-06    3.274118E-08    3.930047E-10    1.734037E-12
        -2.372562E-13   -1.036057E-14   -1.575090E-16    2.444494E-17    2.861199E-19    2.758126E-21    2.317164E-23    1.747743E-25    1.217291E-27    8.006663E-30
         5.076118E-32
  14     2.381418E-30    3.632370E-28    5.362131E-26    7.488985E-24    9.641357E-22    1.103634E-19    1.055294E-17   -7.117037E-17   -5.281537E-15   -1.357736E-13
         1.350234E-12    2.959266E-10    3.274152E-08    9.001913E-06    1.382216E-03    0.108190        1.382216E-03    9.001912E-06    3.274108E-08    2.959745E-10
         1.347514E-12   -1.357380E-13   -5.282825E-15   -7.121242E-17    1.055222E-17    1.103486E-19    9.636735E-22    7.479139E-24    5.349644E-26    3.620039E-28
         2.370819E-30
  15     1.423571E-29    2.481631E-27    4.272969E-25    7.118847E-23    1.130471E-20    1.685267E-18   -1.915116E-17   -1.669666E-15   -4.357499E-14    1.018339E-12
         1.172932E-10    1.345519E-08    5.691848E-06    1.382216E-03    0.176436         7.03381        0.176436        1.382216E-03    5.691849E-06    1.345515E-08
         1.172969E-10    1.018157E-12   -4.357914E-14   -1.669613E-15   -1.914942E-17    1.685227E-18    1.130291E-20    7.116575E-23    4.270798E-25    2.479820E-27
         1.422161E-29
  16    -2.129565E-28   -3.029499E-26   -4.144117E-24   -5.254372E-22   -5.910399E-20   -5.424442E-18   -3.099800E-16    5.788027E-15    4.223944E-13    2.093627E-11
         1.642668E-09    1.162956E-06    4.554383E-04    0.108190         7.03381         47.9619         7.03381        0.108190        4.554383E-04    1.162956E-06
         1.642668E-09    2.093627E-11    4.223944E-13    5.788028E-15   -3.099800E-16   -5.424442E-18   -5.910401E-20   -5.254374E-22   -4.144118E-24   -3.029500E-26
        -2.129566E-28
  17     1.422291E-29    2.479994E-27    4.271014E-25    7.116810E-23    1.130311E-20    1.685232E-18   -1.914965E-17   -1.669620E-15   -4.357834E-14    1.018194E-12
         1.172960E-10    1.345516E-08    5.691849E-06    1.382216E-03    0.176436         7.03381        0.176436        1.382216E-03    5.691848E-06    1.345519E-08
         1.172932E-10    1.018339E-12   -4.357499E-14   -1.669666E-15   -1.915117E-17    1.685267E-18    1.130471E-20    7.118849E-23    4.272971E-25    2.481632E-27
         1.423571E-29
  18     2.373036E-30    3.622575E-28    5.352151E-26    7.481026E-24    9.637473E-22    1.103502E-19    1.055236E-17   -7.119638E-17   -5.282325E-15   -1.357561E-13
         1.348317E-12    2.959592E-10    3.274118E-08    9.001912E-06    1.382216E-03    0.108190        1.382216E-03    9.001913E-06    3.274152E-08    2.959266E-10
         1.350235E-12   -1.357736E-13   -5.281537E-15   -7.117038E-17    1.055294E-17    1.103634E-19    9.641358E-22    7.488986E-24    5.362131E-26    3.632370E-28
         2.381418E-30
  19     5.131201E-32    8.069928E-30    1.223651E-27    1.752821E-25    2.319817E-23    2.759248E-21    2.861073E-19    2.444557E-17   -1.573067E-16   -1.035318E-14
        -2.374984E-13    1.737519E-12    3.930047E-10    3.274108E-08    5.691849E-06    4.554383E-04    5.691848E-06    3.274152E-08    3.928671E-10    1.751351E-12
        -2.380495E-13   -1.033710E-14   -1.568735E-16    2.444805E-17    2.861235E-19    2.763485E-21    2.325333E-23    1.764548E-25    1.239051E-27    8.223945E-30
         5.262720E-32
  20     8.114405E-34    1.323935E-31    2.030253E-29    2.885512E-27    3.799330E-25    4.853016E-23    5.429565E-21    5.207504E-19    4.072094E-17   -2.475751E-16
        -1.425343E-14   -2.813740E-13    1.734037E-12    2.959745E-10    1.345515E-08    1.162956E-06    1.345519E-08    2.959266E-10    1.751351E-12   -2.831318E-13
        -1.417602E-14   -2.457427E-16    4.071393E-17    5.203099E-19    5.449378E-21    4.905642E-23    3.916996E-25    2.841418E-27    1.910343E-29    1.211337E-31
         7.366277E-34
  21     1.038664E-35    1.842726E-33    2.979667E-31    4.303413E-29    5.459544E-27    6.321356E-25    7.885196E-23    8.317660E-21    7.349227E-19    5.200809E-17
        -2.872710E-16   -1.426638E-14   -2.372562E-13    1.347514E-12    1.172969E-10    1.642668E-09    1.172932E-10    1.350235E-12   -2.380495E-13   -1.417602E-14
        -2.842679E-16    5.196563E-17    7.329102E-19    8.369991E-21    8.104570E-23    6.854428E-25    5.178788E-27    3.561305E-29    2.265556E-31    1.352654E-33
         7.683632E-36
  22     1.125044E-37    2.246646E-35    4.014223E-33    6.283196E-31    8.306685E-29    8.904375E-27    8.399850E-25    1.033825E-22    1.023020E-20    8.231478E-19
         5.201392E-17   -2.479823E-16   -1.036057E-14   -1.357380E-13    1.018157E-12    2.093627E-11    1.018339E-12   -1.357736E-13   -1.033710E-14   -2.457427E-16
         5.196563E-17    8.198209E-19    1.032246E-20    1.086491E-22    9.840658E-25    7.836268E-27    5.583545E-29    3.614128E-31    2.153674E-33    1.195295E-35
         6.243091E-38
  23     9.491661E-40    2.163587E-37    4.379683E-35    7.764142E-33    1.167249E-30    1.403719E-28    1.248191E-26    9.348623E-25    1.123092E-22    1.022424E-20
         7.352970E-19    4.072441E-17   -1.575090E-16   -5.282825E-15   -4.357914E-14    4.223944E-13   -4.357499E-14   -5.281537E-15   -1.568735E-16    4.071393E-17
         7.329102E-19    1.032246E-20    1.196650E-22    1.175872E-24    1.000209E-26    7.489335E-29    5.007092E-31    3.026082E-33    1.670929E-35    8.503377E-38
         4.015197E-40
  24     5.729100E-42    1.501781E-39    3.480901E-37    7.064833E-35    1.229238E-32    1.756102E-30    1.904844E-28    1.427524E-26    9.225183E-25    1.027164E-22
         8.308493E-21    5.209402E-19    2.444494E-17   -7.121242E-17   -1.669613E-15    5.788028E-15   -1.669666E-15   -7.117038E-17    2.444805E-17    5.203099E-19
         8.369991E-21    1.086491E-22    1.175872E-24    1.084250E-26    8.660084E-29    6.073540E-31    3.783584E-33    2.114309E-35    1.068289E-37    4.907259E-40
         2.054351E-42
  25     2.351229E-44    7.311500E-42    1.981265E-39    4.647235E-37    9.325930E-35    1.559523E-32    2.057271E-30    1.959337E-28    1.280655E-26    8.170765E-25
         7.829890E-23    5.424764E-21    2.861199E-19    1.055222E-17   -1.914942E-17   -3.099800E-16   -1.915117E-17    1.055294E-17    2.861235E-19    5.449378E-21
         8.104570E-23    9.840658E-25    1.000209E-26    8.660084E-29    6.474818E-31    4.226965E-33    2.431607E-35    1.241547E-37    5.654328E-40    2.300701E-42
         8.339042E-45
  26     5.913548E-47    2.369396E-44    8.027953E-42    2.268346E-39    5.327864E-37    1.031912E-34    1.599728E-32    1.859553E-30    1.510692E-28    9.185968E-27
         6.179576E-25    4.833976E-23    2.758126E-21    1.103486E-19    1.685227E-18   -5.424442E-18    1.685267E-18    1.103634E-19    2.763485E-21    4.905642E-23
         6.854428E-25    7.836268E-27    7.489335E-29    6.073540E-31    4.226965E-33    2.547059E-35    1.337704E-37    6.149789E-40    2.477934E-42    8.722200E-45
         2.654696E-47
  27     4.452894E-50    3.742934E-47    2.065376E-44    8.051221E-42    2.363541E-39    5.410299E-37    9.730590E-35    1.328327E-32    1.295478E-30    9.059093E-29
         5.565076E-27    3.757157E-25    2.317164E-23    9.636735E-22    1.130291E-20   -5.910401E-20    1.130471E-20    9.641358E-22    2.325333E-23    3.916996E-25
         5.178788E-27    5.583545E-29    5.007092E-31    3.783584E-33    2.431607E-35    1.337704E-37    6.323116E-40    2.569611E-42    8.944842E-45    2.639897E-47
         6.466468E-50
  28    -2.279997E-52   -5.596551E-50    1.478311E-47    1.793881E-44    7.970429E-42    2.310213E-39    4.899904E-37    7.748461E-35    8.802257E-33    7.097875E-31
         4.584541E-29    2.904388E-27    1.747743E-25    7.479139E-24    7.116575E-23   -5.254374E-22    7.118849E-23    7.488986E-24    1.764548E-25    2.841418E-27
         3.561305E-29    3.614128E-31    3.026082E-33    2.114309E-35    1.241547E-37    6.149789E-40    2.569611E-42    9.015575E-45    2.626612E-47    6.218606E-50
         1.148767E-52
  29    -7.674211E-55   -4.547839E-52   -1.214383E-49    6.558695E-48    1.854917E-44    8.003338E-42    2.097546E-39    3.869124E-37    5.060033E-35    4.654049E-33
         3.278285E-31    2.084279E-29    1.217291E-27    5.349644E-26    4.270798E-25   -4.144118E-24    4.272971E-25    5.362131E-26    1.239051E-27    1.910343E-29
         2.265556E-31    2.153674E-33    1.670929E-35    1.068289E-37    5.654328E-40    2.477934E-42    8.944842E-45    2.626612E-47    6.125812E-50    1.086379E-52
         1.348229E-55
  30    -8.281227E-58   -1.059856E-54   -5.633498E-52   -1.236651E-49    1.879548E-47    2.188208E-44    7.702880E-42    1.694733E-39    2.555264E-37    2.670487E-35
         2.079638E-33    1.382119E-31    8.006663E-30    3.620039E-28    2.479820E-27   -3.029500E-26    2.481632E-27    3.632370E-28    8.223945E-30    1.211337E-31
         1.352654E-33    1.195295E-35    8.503377E-38    4.907259E-40    2.300701E-42    8.722200E-45    2.639897E-47    6.218606E-50    1.086379E-52    1.277691E-55
         8.089783E-59
  31      0.00000       -1.076401E-57   -1.200695E-54   -5.262724E-52   -5.652966E-50    4.427368E-47    2.433661E-44    6.605549E-42    1.156571E-39    1.378446E-37
         1.200466E-35    8.589224E-34    5.076118E-32    2.370819E-30    1.422161E-29   -2.129566E-28    1.423571E-29    2.381418E-30    5.262720E-32    7.366277E-34
         7.683632E-36    6.243091E-38    4.015197E-40    2.054351E-42    8.339042E-45    2.654696E-47    6.466468E-50    1.148767E-52    1.348229E-55    8.089783E-59
          0.00000    

 CONCENTRATION WILL BE SAVED ON UNIT 1030 AT END OF TIME STEP    2, STRESS PERIOD    1


  MASS BUDGET FOR ENTIRE MODEL AT END OF TIME STEP    2, STRESS PERIOD   1
  ---------------------------------------------------------------------------------------------------

     CUMULATIVE MASS      M       RATES FOR THIS TIME STEP      M/T          PACKAGE NAME    
     ------------------                 ------------------------                     ----------------

           IN:                                      IN:
           ---                                      ---
     STORAGE-AQUEOUS =       7.9898E-05       STORAGE-AQUEOUS =       3.1439E-06     MST                              
                 WEL =   438000000.0000                   WEL =     8640000.0000     SSM_WEL-1                        
                 CHD =           0.0000                   CHD =           0.0000     SSM_CHD-1                        

            TOTAL IN =   438000000.0001              TOTAL IN =     8640000.0000

          OUT:                                     OUT:
          ----                                     ----
     STORAGE-AQUEOUS =   438000000.0001       STORAGE-AQUEOUS =     8640000.0000     MST                              
                 WEL =           0.0000                   WEL =           0.0000     SSM_WEL-1                        
                 CHD =       4.0952E-24                   CHD =       1.5891E-25     SSM_CHD-1                        

           TOTAL OUT =   438000000.0001             TOTAL OUT =     8640000.0000

            IN - OUT =       1.5259E-05              IN - OUT =       2.7008E-07

 PERCENT DISCREPANCY =           0.00     PERCENT DISCREPANCY =           0.00




         TIME SUMMARY AT END OF TIME STEP    2 IN STRESS PERIOD    1
                    SECONDS     MINUTES      HOURS       DAYS        YEARS
                    -----------------------------------------------------------
   TIME STEP LENGTH 2.19000E+06  36500.      608.33      25.347     6.93969E-02
 STRESS PERIOD TIME 4.38000E+06  73000.      1216.7      50.694     0.13879    
         TOTAL TIME 4.38000E+06  73000.      1216.7      50.694     0.13879    


end timestep


start timestep kper="1" kstp="3" mode="normal"

 UBDSV1 SAVING  STORAGE-AQUEOUS ON UNIT   1029 AT TIME STEP      3, STRESS PERIOD      1
 UBDSV1 SAVING     FLOW-JA-FACE ON UNIT   1029 AT TIME STEP      3, STRESS PERIOD      1
 UBDSV06 SAVING  SOURCE-SINK MIX IN MODEL GWT_P06-MF6      PACKAGE GWT_P06-MF6     CONNECTED TO MODEL GWT_P06-MF6      PACKAGE SSM              ON UNIT   1029 AT TIME STEP      3, STRESS PERIOD      1
1
  CONCENTRATION IN LAYER   1 AT END OF TIME STEP   3 IN STRESS PERIOD    1
  ---------------------------------------------------------------------------

                1               2               3               4               5               6               7               8               9              10
               11              12              13              14              15              16              17              18              19              20
               21              22              23              24              25              26              27              28              29              30
               31
 ................................................................................................................................................................................................................................................................................................................................................................................................................................................................................................................
   1      0.00000        8.615446E-58    1.368089E-54    1.107961E-51    5.911691E-49    2.293378E-46    6.783895E-44    1.567481E-41    2.860076E-39    4.128787E-37
         4.686901E-35    4.112691E-33    2.669507E-31    1.102076E-29    9.028510E-29   -8.389438E-28    9.034729E-29    1.104490E-29    2.667760E-31    4.566932E-33
         6.331992E-35    7.395937E-37    6.773311E-39    4.529771E-41    2.162779E-43    7.267149E-46    1.625553E-48    2.101513E-51    8.977216E-55   -7.782164E-58
          0.00000    
   2     8.615446E-58    1.296594E-54    1.047901E-51    5.686033E-49    2.281166E-46    7.098292E-44    1.756464E-41    3.498619E-39    5.631357E-37    7.306294E-35
         7.572907E-33    6.154325E-31    3.755169E-29    1.491327E-27    1.298200E-26   -1.054936E-25    1.299094E-26    1.493865E-27    3.762217E-29    6.746956E-31
         1.005659E-32    1.294637E-34    1.333107E-36    1.020735E-38    5.722890E-41    2.351046E-43    6.895008E-46    1.343471E-48    1.428256E-51    9.485490E-56
        -1.295784E-57
   3     1.368089E-54    1.047901E-51    5.601292E-49    2.269809E-46    7.280324E-44    1.892191E-41    4.032857E-39    7.079705E-37    1.022581E-34    1.208073E-32
         1.154174E-30    8.739074E-29    5.024735E-27    1.917958E-25    1.767531E-24   -1.249777E-23    1.768628E-24    1.919561E-25    5.039527E-27    9.354836E-29
         1.472915E-30    2.062805E-32    2.369129E-34    2.056503E-36    1.330702E-38    6.505268E-41    2.394995E-43    6.442230E-46    1.178020E-48    1.175456E-51
        -1.255180E-55
   4     1.107961E-51    5.686033E-49    2.269809E-46    7.338167E-44    1.962400E-41    4.387190E-39    8.231300E-37    1.294880E-34    1.699613E-32    1.845102E-30
         1.634266E-28    1.155466E-26    6.248618E-25    2.278342E-23    2.191110E-22   -1.347843E-21    2.192039E-22    2.278039E-23    6.262339E-25    1.195970E-26
         1.952124E-28    2.931931E-30    3.738433E-32    3.662512E-34    2.704410E-36    1.539893E-38    6.863428E-41    2.382767E-43    6.296244E-46    1.197510E-48
         1.397653E-51
   5     5.911691E-49    2.281166E-46    7.280324E-44    1.962400E-41    4.511150E-39    8.870491E-37    1.489799E-34    2.126677E-32    2.559726E-30    2.568241E-28
         2.113629E-26    1.392580E-24    7.027784E-23    2.410173E-21    2.316497E-20   -1.269345E-19    2.316287E-20    2.410407E-21    7.027774E-23    1.392051E-24
         2.302635E-26    3.621085E-28    5.103621E-30    5.653157E-32    4.742619E-34    3.097366E-36    1.622483E-38    6.903322E-41    2.383966E-43    6.595335E-46
         1.411816E-48
   6     2.293378E-46    7.098292E-44    1.892191E-41    4.387190E-39    8.870491E-37    1.560731E-34    2.376723E-32    3.107213E-30    3.449714E-28    3.206369E-26
         2.447176E-24    1.490660E-22    6.895398E-21    2.146829E-19    1.760463E-18   -9.872296E-18    1.760431E-18    2.146698E-19    6.893337E-21    1.485914E-22
         2.432866E-24    3.793036E-26    5.804781E-28    7.322000E-30    7.012569E-32    5.218178E-34    3.145256E-36    1.577643E-38    6.669233E-41    2.383423E-43
         7.153988E-46
   7     6.783895E-44    1.756464E-41    4.032857E-39    8.231300E-37    1.489799E-34    2.376723E-32    3.313278E-30    3.991592E-28    4.098310E-26    3.522837E-24
         2.474480E-22    1.369173E-20    5.584545E-19    1.442207E-17    1.366127E-17   -6.014625E-16    1.366409E-17    1.442176E-17    5.584742E-19    1.367715E-20
         2.449635E-22    3.474240E-24    5.296928E-26    7.581523E-28    8.407780E-30    7.165347E-32    4.925024E-34    2.841148E-36    1.408740E-38    6.080414E-41
         2.295404E-43
   8     1.567481E-41    3.498619E-39    7.079705E-37    1.294880E-34    2.126677E-32    3.107213E-30    3.991592E-28    4.444632E-26    4.214792E-24    3.326306E-22
         2.113783E-20    1.023442E-18    3.344335E-17    2.959755E-17   -2.833132E-15   -1.073708E-14   -2.833040E-15    2.957400E-17    3.344993E-17    1.024113E-18
         2.108858E-20    3.262077E-22    4.129994E-24    6.024768E-26    7.751490E-28    7.667743E-30    6.030281E-32    3.962417E-34    2.251393E-36    1.129813E-38
         5.071153E-41
   9     2.860076E-39    5.631357E-37    1.022581E-34    1.699613E-32    2.559726E-30    3.449714E-28    4.098310E-26    4.214792E-24    3.666713E-22    2.613171E-20
         1.448572E-18    5.602013E-17    5.112055E-17   -8.555459E-15   -1.203391E-13    3.142916E-14   -1.203413E-13   -8.556135E-15    5.092036E-17    5.607584E-17
         1.451068E-18    2.602974E-20    3.575326E-22    4.126123E-24    5.428904E-26    6.151845E-28    5.547811E-30    4.141168E-32    2.666381E-34    1.523961E-36
         7.880163E-39
  10     4.128787E-37    7.306294E-35    1.208073E-32    1.845102E-30    2.568241E-28    3.206369E-26    3.522837E-24    3.326306E-22    2.613171E-20    1.622787E-18
         7.170101E-17    6.457017E-17   -1.652856E-14   -2.912188E-13   -2.131247E-12    5.317852E-11   -2.131484E-12   -2.911586E-13   -1.655043E-14    6.404229E-17
         7.185762E-17    1.626610E-18    2.602157E-20    3.253263E-22    3.466480E-24    3.921615E-26    3.883985E-28    3.231907E-30    2.322900E-32    1.486151E-34
         8.662194E-37
  11     4.686901E-35    7.572907E-33    1.154174E-30    1.634266E-28    2.113629E-26    2.447176E-24    2.474480E-22    2.113783E-20    1.448572E-18    7.170101E-17
         6.862009E-17   -2.258187E-14   -4.752787E-13   -5.638764E-12    3.188479E-10    8.624578E-09    3.188520E-10   -5.641768E-12   -4.743480E-13   -2.269682E-14
         6.820544E-17    7.187367E-17    1.451488E-18    2.107748E-20    2.442448E-22    2.427941E-24    2.361356E-26    2.061020E-28    1.592478E-30    1.109137E-32
         7.112902E-35
  12     4.112691E-33    6.154325E-31    8.739074E-29    1.155466E-26    1.392580E-24    1.490660E-22    1.369173E-20    1.023442E-18    5.602013E-17    6.457017E-17
        -2.258187E-14   -5.560727E-13   -7.857914E-12    8.534739E-10    6.349309E-08    4.458972E-06    6.349304E-08    8.535205E-10   -7.878348E-12   -5.532798E-13
        -2.271737E-14    6.395626E-17    5.609263E-17    1.024384E-18    1.367279E-20    1.483634E-22    1.390943E-24    1.210673E-26    9.603779E-29    7.013849E-31
         4.800291E-33
  13     2.669507E-31    3.755169E-29    5.024735E-27    6.248618E-25    7.027784E-23    6.895398E-21    5.584545E-19    3.344335E-17    5.112055E-17   -1.652856E-14
        -4.752787E-13   -7.857914E-12    1.165312E-09    1.504282E-07    2.160589E-05    1.510114E-03    2.160589E-05    1.504277E-07    1.165501E-09   -7.883318E-12
        -4.739748E-13   -1.656080E-14    5.081518E-17    3.345320E-17    5.585118E-19    6.892612E-21    7.025395E-23    6.264298E-25    5.042517E-27    3.763401E-29
         2.666582E-31
  14     1.102076E-29    1.491327E-27    1.917958E-25    2.278342E-23    2.410173E-21    2.146829E-19    1.442207E-17    2.959755E-17   -8.555459E-15   -2.912188E-13
        -5.638764E-12    8.534739E-10    1.504282E-07    3.400073E-05    4.480802E-03    0.288124        4.480802E-03    3.400073E-05    1.504276E-07    8.535414E-10
        -5.642960E-12   -2.911247E-13   -8.556719E-15    2.955868E-17    1.442176E-17    2.146699E-19    2.410446E-21    2.277919E-23    1.920002E-25    1.494598E-27
         1.105221E-29
  15     9.028510E-29    1.298200E-26    1.767531E-24    2.191110E-22    2.316497E-20    1.760463E-18    1.366127E-17   -2.833132E-15   -1.203391E-13   -2.131247E-12
         3.188479E-10    6.349309E-08    2.160589E-05    4.480802E-03    0.453291         12.6010        0.453291        4.480802E-03    2.160589E-05    6.349302E-08
         3.188533E-10   -2.131544E-12   -1.203419E-13   -2.833026E-15    1.366453E-17    1.760427E-18    2.316261E-20    2.192135E-22    1.768733E-24    1.299172E-26
         9.035216E-29
  16    -8.389438E-28   -1.054936E-25   -1.249777E-23   -1.347843E-21   -1.269345E-19   -9.872296E-18   -6.014625E-16   -1.073708E-14    3.142916E-14    5.317852E-11
         8.624578E-09    4.458972E-06    1.510114E-03    0.288124         12.6010         62.4611         12.6010        0.288124        1.510114E-03    4.458972E-06
         8.624578E-09    5.317852E-11    3.142923E-14   -1.073708E-14   -6.014625E-16   -9.872298E-18   -1.269345E-19   -1.347843E-21   -1.249777E-23   -1.054936E-25
        -8.389439E-28
  17     9.034729E-29    1.299094E-26    1.768628E-24    2.192039E-22    2.316287E-20    1.760431E-18    1.366409E-17   -2.833040E-15   -1.203413E-13   -2.131484E-12
         3.188520E-10    6.349304E-08    2.160589E-05    4.480802E-03    0.453291         12.6010        0.453291        4.480802E-03    2.160589E-05    6.349309E-08
         3.188479E-10   -2.131247E-12   -1.203391E-13   -2.833132E-15    1.366126E-17    1.760463E-18    2.316498E-20    2.191110E-22    1.767531E-24    1.298200E-26
         9.028514E-29
  18     1.104490E-29    1.493865E-27    1.919561E-25    2.278039E-23    2.410407E-21    2.146698E-19    1.442176E-17    2.957400E-17   -8.556135E-15   -2.911586E-13
        -5.641768E-12    8.535205E-10    1.504277E-07    3.400073E-05    4.480802E-03    0.288124        4.480802E-03    3.400073E-05    1.504282E-07    8.534739E-10
        -5.638764E-12   -2.912188E-13   -8.555459E-15    2.959754E-17    1.442207E-17    2.146829E-19    2.410174E-21    2.278342E-23    1.917959E-25    1.491327E-27
         1.102076E-29
  19     2.667760E-31    3.762217E-29    5.039527E-27    6.262339E-25    7.027774E-23    6.893337E-21    5.584742E-19    3.344993E-17    5.092036E-17   -1.655043E-14
        -4.743480E-13   -7.878348E-12    1.165501E-09    1.504276E-07    2.160589E-05    1.510114E-03    2.160589E-05    1.504282E-07    1.165312E-09   -7.857914E-12
        -4.752787E-13   -1.652856E-14    5.112055E-17    3.344335E-17    5.584546E-19    6.895398E-21    7.027785E-23    6.248619E-25    5.024735E-27    3.755169E-29
         2.669507E-31
  20     4.566932E-33    6.746956E-31    9.354836E-29    1.195970E-26    1.392051E-24    1.485914E-22    1.367715E-20    1.024113E-18    5.607584E-17    6.404228E-17
        -2.269682E-14   -5.532798E-13   -7.883318E-12    8.535414E-10    6.349302E-08    4.458972E-06    6.349309E-08    8.534739E-10   -7.857914E-12   -5.560727E-13
        -2.258187E-14    6.457017E-17    5.602013E-17    1.023442E-18    1.369173E-20    1.490660E-22    1.392580E-24    1.155466E-26    8.739075E-29    6.154325E-31
         4.112691E-33
  21     6.331992E-35    1.005659E-32    1.472915E-30    1.952124E-28    2.302635E-26    2.432866E-24    2.449635E-22    2.108858E-20    1.451068E-18    7.185762E-17
         6.820544E-17   -2.271737E-14   -4.739748E-13   -5.642960E-12    3.188533E-10    8.624578E-09    3.188479E-10   -5.638764E-12   -4.752787E-13   -2.258187E-14
         6.862010E-17    7.170101E-17    1.448572E-18    2.113783E-20    2.474480E-22    2.447176E-24    2.113629E-26    1.634266E-28    1.154174E-30    7.572907E-33
         4.686901E-35
  22     7.395937E-37    1.294637E-34    2.062805E-32    2.931931E-30    3.621085E-28    3.793036E-26    3.474240E-24    3.262077E-22    2.602974E-20    1.626610E-18
         7.187367E-17    6.395626E-17   -1.656080E-14   -2.911247E-13   -2.131544E-12    5.317852E-11   -2.131247E-12   -2.912188E-13   -1.652856E-14    6.457017E-17
         7.170101E-17    1.622787E-18    2.613171E-20    3.326306E-22    3.522837E-24    3.206369E-26    2.568241E-28    1.845102E-30    1.208073E-32    7.306294E-35
         4.128787E-37
  23     6.773311E-39    1.333107E-36    2.369129E-34    3.738433E-32    5.103621E-30    5.804781E-28    5.296928E-26    4.129994E-24    3.575326E-22    2.602157E-20
         1.451488E-18    5.609263E-17    5.081518E-17   -8.556719E-15   -1.203419E-13    3.142923E-14   -1.203391E-13   -8.555459E-15    5.112055E-17    5.602013E-17
         1.448572E-18    2.613171E-20    3.666713E-22    4.214792E-24    4.098310E-26    3.449714E-28    2.559726E-30    1.699613E-32    1.022581E-34    5.631357E-37
         2.860076E-39
  24     4.529771E-41    1.020735E-38    2.056503E-36    3.662512E-34    5.653157E-32    7.322000E-30    7.581523E-28    6.024768E-26    4.126123E-24    3.253263E-22
         2.107748E-20    1.024384E-18    3.345320E-17    2.955868E-17   -2.833026E-15   -1.073708E-14   -2.833132E-15    2.959754E-17    3.344335E-17    1.023442E-18
         2.113783E-20    3.326306E-22    4.214792E-24    4.444632E-26    3.991592E-28    3.107213E-30    2.126677E-32    1.294880E-34    7.079705E-37    3.498619E-39
         1.567481E-41
  25     2.162779E-43    5.722890E-41    1.330702E-38    2.704410E-36    4.742619E-34    7.012569E-32    8.407780E-30    7.751490E-28    5.428904E-26    3.466480E-24
         2.442448E-22    1.367279E-20    5.585118E-19    1.442176E-17    1.366453E-17   -6.014625E-16    1.366126E-17    1.442207E-17    5.584546E-19    1.369173E-20
         2.474480E-22    3.522837E-24    4.098310E-26    3.991592E-28    3.313278E-30    2.376723E-32    1.489799E-34    8.231300E-37    4.032857E-39    1.756464E-41
         6.783895E-44
  26     7.267149E-46    2.351046E-43    6.505268E-41    1.539893E-38    3.097366E-36    5.218178E-34    7.165347E-32    7.667743E-30    6.151845E-28    3.921615E-26
         2.427941E-24    1.483634E-22    6.892612E-21    2.146699E-19    1.760427E-18   -9.872298E-18    1.760463E-18    2.146829E-19    6.895398E-21    1.490660E-22
         2.447176E-24    3.206369E-26    3.449714E-28    3.107213E-30    2.376723E-32    1.560731E-34    8.870491E-37    4.387190E-39    1.892191E-41    7.098292E-44
         2.293378E-46
  27     1.625553E-48    6.895008E-46    2.394995E-43    6.863428E-41    1.622483E-38    3.145256E-36    4.925024E-34    6.030281E-32    5.547811E-30    3.883985E-28
         2.361356E-26    1.390943E-24    7.025395E-23    2.410446E-21    2.316261E-20   -1.269345E-19    2.316498E-20    2.410174E-21    7.027785E-23    1.392580E-24
         2.113629E-26    2.568241E-28    2.559726E-30    2.126677E-32    1.489799E-34    8.870491E-37    4.511150E-39    1.962399E-41    7.280324E-44    2.281166E-46
         5.911691E-49
  28     2.101513E-51    1.343471E-48    6.442230E-46    2.382767E-43    6.903322E-41    1.577643E-38    2.841148E-36    3.962417E-34    4.141168E-32    3.231907E-30
         2.061020E-28    1.210673E-26    6.264298E-25    2.277919E-23    2.192135E-22   -1.347843E-21    2.191110E-22    2.278342E-23    6.248619E-25    1.155466E-26
         1.634266E-28    1.845102E-30    1.699613E-32    1.294880E-34    8.231300E-37    4.387190E-39    1.962399E-41    7.338167E-44    2.269809E-46    5.686033E-49
         1.107961E-51
  29     8.977216E-55    1.428256E-51    1.178020E-48    6.296244E-46    2.383966E-43    6.669233E-41    1.408740E-38    2.251393E-36    2.666381E-34    2.322900E-32
         1.592478E-30    9.603779E-29    5.042517E-27    1.920002E-25    1.768733E-24   -1.249777E-23    1.767531E-24    1.917959E-25    5.024735E-27    8.739075E-29
         1.154174E-30    1.208073E-32    1.022581E-34    7.079705E-37    4.032857E-39    1.892191E-41    7.280324E-44    2.269809E-46    5.601292E-49    1.047901E-51
         1.368089E-54
  30    -7.782164E-58    9.485490E-56    1.175456E-51    1.197510E-48    6.595335E-46    2.383423E-43    6.080414E-41    1.129813E-38    1.523961E-36    1.486151E-34
         1.109137E-32    7.013849E-31    3.763401E-29    1.494598E-27    1.299172E-26   -1.054936E-25    1.298200E-26    1.491327E-27    3.755169E-29    6.154325E-31
         7.572907E-33    7.306294E-35    5.631357E-37    3.498619E-39    1.756464E-41    7.098292E-44    2.281166E-46    5.686033E-49    1.047901E-51    1.296594E-54
         8.615446E-58
  31      0.00000       -1.295784E-57   -1.255180E-55    1.397653E-51    1.411816E-48    7.153988E-46    2.295404E-43    5.071153E-41    7.880163E-39    8.662194E-37
         7.112902E-35    4.800291E-33    2.666582E-31    1.105221E-29    9.035216E-29   -8.389439E-28    9.028514E-29    1.102076E-29    2.669507E-31    4.112691E-33
         4.686901E-35    4.128787E-37    2.860076E-39    1.567481E-41    6.783895E-44    2.293378E-46    5.911691E-49    1.107961E-51    1.368089E-54    8.615446E-58
          0.00000    

 CONCENTRATION WILL BE SAVED ON UNIT 1030 AT END OF TIME STEP    3, STRESS PERIOD    1


  MASS BUDGET FOR ENTIRE MODEL AT END OF TIME STEP    3, STRESS PERIOD   1
  ---------------------------------------------------------------------------------------------------

     CUMULATIVE MASS      M       RATES FOR THIS TIME STEP      M/T          PACKAGE NAME    
     ------------------                 ------------------------                     ----------------

           IN:                                      IN:
           ---                                      ---
     STORAGE-AQUEOUS =       1.0134E-03       STORAGE-AQUEOUS =       3.6830E-05     MST                              
                 WEL =   657000000.0000                   WEL =     8640000.0000     SSM_WEL-1                        
                 CHD =           0.0000                   CHD =           0.0000     SSM_CHD-1                        

            TOTAL IN =   657000000.0010              TOTAL IN =     8640000.0000

          OUT:                                     OUT:
          ----                                     ----
     STORAGE-AQUEOUS =   657000000.0010       STORAGE-AQUEOUS =     8640000.0000     MST                              
                 WEL =           0.0000                   WEL =           0.0000     SSM_WEL-1                        
                 CHD =       2.8687E-23                   CHD =       9.7019E-25     SSM_CHD-1                        

           TOTAL OUT =   657000000.0010             TOTAL OUT =     8640000.0000

            IN - OUT =       1.8835E-05              IN - OUT =       1.3970E-07

 PERCENT DISCREPANCY =           0.00     PERCENT DISCREPANCY =           0.00




         TIME SUMMARY AT END OF TIME STEP    3 IN STRESS PERIOD    1
                    SECONDS     MINUTES      HOURS       DAYS        YEARS
                    -----------------------------------------------------------
   TIME STEP LENGTH 2.19000E+06  36500.      608.33      25.347     6.93969E-02
 STRESS PERIOD TIME 6.57000E+06 1.09500E+05  1825.0      76.042     0.20819    
         TOTAL TIME 6.57000E+06 1.09500E+05  1825.0      76.042     0.20819    


end timestep


start timestep kper="1" kstp="4" mode="normal"

 UBDSV1 SAVING  STORAGE-AQUEOUS ON UNIT   1029 AT TIME STEP      4, STRESS PERIOD      1
 UBDSV1 SAVING     FLOW-JA-FACE ON UNIT   1029 AT TIME STEP      4, STRESS PERIOD      1
 UBDSV06 SAVING  SOURCE-SINK MIX IN MODEL GWT_P06-MF6      PACKAGE GWT_P06-MF6     CONNECTED TO MODEL GWT_P06-MF6      PACKAGE SSM              ON UNIT   1029 AT TIME STEP      4, STRESS PERIOD      1
1
  CONCENTRATION IN LAYER   1 AT END OF TIME STEP   4 IN STRESS PERIOD    1
  ---------------------------------------------------------------------------

                1               2               3               4               5               6               7               8               9              10
               11              12              13              14              15              16              17              18              19              20
               21              22              23              24              25              26              27              28              29              30
               31
 ................................................................................................................................................................................................................................................................................................................................................................................................................................................................................................................
   1      0.00000        6.382186E-57    9.675198E-54    7.463425E-51    3.783559E-48    1.390654E-45    3.885102E-43    8.447735E-41    1.444525E-38    1.944772E-36
         2.047068E-34    1.654414E-32    9.821402E-31    3.704447E-29    3.247554E-28   -2.379718E-27    3.250030E-28    3.712262E-29    9.862141E-31    1.779653E-32
         2.547651E-34    3.050092E-36    2.912490E-38    2.082560E-40    1.088837E-42    4.132136E-45    1.113202E-47    2.023203E-50    2.225801E-53    1.110916E-56
          0.00000    
   2     6.382186E-57    9.169653E-54    7.059014E-51    3.639320E-48    1.383382E-45    4.065863E-43    9.469111E-41    1.767953E-38    2.654844E-36    3.195614E-34
         3.052479E-32    2.267928E-30    1.253904E-28    4.491480E-27    4.005981E-26   -2.600545E-25    4.008826E-26    4.498424E-27    1.259996E-28    2.407565E-30
         3.700077E-32    4.843328E-34    5.170503E-36    4.229733E-38    2.597421E-40    1.198745E-42    4.131440E-45    1.038908E-47    1.813353E-50    1.970307E-53
         1.020986E-56
   3     9.675198E-54    7.059014E-51    3.585142E-48    1.376559E-45    4.170528E-43    1.020264E-40    2.038563E-38    3.339474E-36    4.476670E-34    4.876810E-32
         4.262747E-30    2.924623E-28    1.506321E-26    5.100981E-25    4.565249E-24   -2.574615E-23    4.567986E-24    5.105064E-25    1.513031E-26    3.048900E-28
         4.977347E-30    7.041258E-32    8.317654E-34    7.685358E-36    5.437367E-38    2.966725E-40    1.254408E-42    4.083320E-45    1.001974E-47    1.769359E-50
         2.032520E-53
   4     7.463425E-51    3.639320E-48    1.376559E-45    4.203792E-43    1.058207E-40    2.218053E-38    3.883911E-36    5.671938E-34    6.867757E-32    6.825672E-30
         5.483185E-28    3.474651E-26    1.659050E-24    5.250542E-23    4.584853E-22   -2.145597E-21    4.586593E-22    5.251035E-23    1.663720E-24    3.543782E-26
         6.092830E-28    9.208261E-30    1.193909E-31    1.235892E-33    9.943402E-36    6.284187E-38    3.162313E-40    1.272942E-42    4.077530E-45    1.019542E-47
         1.900753E-50
   5     3.783559E-48    1.383382E-45    4.170528E-43    1.058207E-40    2.280847E-38    4.186123E-36    6.527711E-34    8.598297E-32    9.478919E-30    8.632007E-28
         6.374694E-26    3.713384E-24    1.623980E-22    4.689555E-21    3.761692E-20   -1.242579E-19    3.761393E-20    4.690378E-21    1.624584E-22    3.710301E-24
         6.675291E-26    1.061689E-27    1.497779E-29    1.729510E-31    1.570391E-33    1.133079E-35    6.631666E-38    3.190418E-40    1.267675E-42    4.140397E-45
         1.089852E-47
   6     1.390654E-45    4.065863E-43    1.020264E-40    2.218053E-38    4.186123E-36    6.839156E-34    9.611734E-32    1.151256E-29    1.160670E-27    9.688785E-26
         6.547845E-24    3.465388E-22    1.355092E-20    3.394191E-19    2.153524E-18    2.146522E-19    2.153478E-18    3.394015E-19    1.354659E-20    3.460251E-22
         6.504878E-24    1.061017E-25    1.600328E-27    2.055202E-29    2.101649E-31    1.716712E-33    1.149283E-35    6.438796E-38    3.056299E-40    1.234601E-42
         4.222237E-45
   7     3.885102E-43    9.469111E-41    2.038563E-38    3.883911E-36    6.527711E-34    9.611734E-32    1.227814E-29    1.343620E-27    1.239654E-25    9.444943E-24
         5.775417E-22    2.713811E-20    9.048752E-19    1.734932E-17    5.541326E-17   -5.766462E-16    5.541534E-17    1.734906E-17    9.048107E-19    2.711097E-20
         5.742480E-22    9.308844E-24    1.427575E-25    2.010200E-27    2.317490E-29    2.139037E-31    1.622191E-33    1.039116E-35    5.731269E-38    2.753122E-40
         1.156565E-42
   8     8.447735E-41    1.767953E-38    3.339474E-36    5.671938E-34    8.598297E-32    1.151256E-29    1.343620E-27    1.344832E-25    1.131031E-23    7.779496E-22
         4.209060E-20    1.679836E-18    4.314807E-17    1.658986E-16   -1.178328E-15   -1.794642E-14   -1.178205E-15    1.658765E-16    4.315298E-17    1.680122E-18
         4.199814E-20    7.691362E-22    1.107611E-23    1.592522E-25    2.041299E-27    2.128099E-29    1.821064E-31    1.319105E-33    8.295990E-36    4.610269E-38
         2.289258E-40
   9     1.444525E-38    2.654844E-36    4.476670E-34    6.867757E-32    9.478919E-30    1.160670E-27    1.239654E-25    1.131031E-23    8.580958E-22    5.213442E-20
         2.390312E-18    7.388769E-17    3.395739E-16   -3.720225E-15   -1.737689E-13   -7.737867E-13   -1.737700E-13   -3.722000E-15    3.395433E-16    7.394229E-17
         2.391620E-18    5.194591E-20    8.455050E-22    1.106435E-23    1.448206E-25    1.664126E-27    1.591681E-29    1.291069E-31    9.127509E-34    5.750188E-36
         3.281827E-38
  10     1.944772E-36    3.195614E-34    4.876810E-32    6.825672E-30    8.632007E-28    9.688785E-26    9.444943E-24    7.779496E-22    5.213442E-20    2.681598E-18
         9.515600E-17    5.057340E-16   -7.353042E-15   -4.236181E-13   -4.835448E-12    1.103779E-10   -4.835756E-12   -4.235493E-13   -7.385802E-15    5.062754E-16
         9.531543E-17    2.683462E-18    5.193236E-20    7.679208E-22    9.286149E-24    1.081080E-25    1.110401E-27    9.847390E-30    7.670734E-32    5.363887E-34
         3.432247E-36
  11     2.047068E-34    3.052479E-32    4.262747E-30    5.483185E-28    6.374694E-26    6.547845E-24    5.775417E-22    4.209060E-20    2.390312E-18    9.515600E-17
         5.747814E-16   -1.027015E-14   -6.763117E-13   -9.933009E-12    7.627075E-10    2.966408E-08    7.627125E-10   -9.936736E-12   -6.753069E-13   -1.042922E-14
         5.765640E-16    9.533146E-17    2.391839E-18    4.197923E-20    5.732632E-22    6.490827E-24    6.767058E-26    6.296992E-28    5.235592E-30    3.953745E-32
         2.762557E-34
  12     1.654414E-32    2.267928E-30    2.924623E-28    3.474651E-26    3.713384E-24    3.465388E-22    2.713811E-20    1.679836E-18    7.388769E-17    5.057340E-16
        -1.027015E-14   -7.838962E-13   -1.217402E-11    2.220554E-09    2.114281E-07    1.300101E-05    2.114281E-07    2.220610E-09   -1.219845E-11   -7.807227E-13
        -1.045676E-14    5.064824E-16    7.395903E-17    1.680302E-18    2.710370E-20    3.457387E-22    3.707289E-24    3.567953E-26    3.097355E-28    2.467112E-30
         1.838560E-32
  13     9.821402E-31    1.253904E-28    1.506321E-26    1.659050E-24    1.623980E-22    1.355092E-20    9.048752E-19    4.314807E-17    3.395739E-16   -7.353042E-15
        -6.763117E-13   -1.217402E-11    3.116960E-09    4.959654E-07    6.239092E-05    3.870473E-03    6.239092E-05    4.959648E-07    3.117181E-09   -1.220428E-11
        -6.748963E-13   -7.400393E-15    3.395239E-16    4.315613E-17    9.048302E-19    1.354536E-20    1.624407E-22    1.664797E-24    1.514892E-26    1.261828E-28
         9.875366E-31
  14     3.704447E-29    4.491480E-27    5.100981E-25    5.250542E-23    4.689555E-21    3.394191E-19    1.734932E-17    1.658986E-16   -3.720225E-15   -4.236181E-13
        -9.933009E-12    2.220554E-09    4.959654E-07    9.769370E-05    1.124465E-02    0.603447        1.124465E-02    9.769370E-05    4.959647E-07    2.220634E-09
        -9.938168E-12   -4.235143E-13   -3.723022E-15    1.658648E-16    1.734916E-17    3.394012E-19    4.690507E-21    5.251009E-23    5.106076E-25    4.500311E-27
         3.714490E-29
  15     3.247554E-28    4.005981E-26    4.565249E-24    4.584853E-22    3.761692E-20    2.153524E-18    5.541326E-17   -1.178328E-15   -1.737689E-13   -4.835448E-12
         7.627075E-10    2.114281E-07    6.239092E-05    1.124465E-02    0.922143         18.8420        0.922143        1.124465E-02    6.239092E-05    2.114281E-07
         7.627142E-10   -4.835835E-12   -1.737704E-13   -1.178186E-15    5.541571E-17    2.153472E-18    3.761358E-20    4.586774E-22    4.568255E-24    4.009092E-26
         3.250247E-28
  16    -2.379718E-27   -2.600545E-25   -2.574615E-23   -2.145597E-21   -1.242579E-19    2.146522E-19   -5.766462E-16   -1.794642E-14   -7.737867E-13    1.103779E-10
         2.966408E-08    1.300101E-05    3.870473E-03    0.603447         18.8420         72.9204         18.8420        0.603447        3.870473E-03    1.300101E-05
         2.966408E-08    1.103779E-10   -7.737866E-13   -1.794642E-14   -5.766465E-16    2.146490E-19   -1.242579E-19   -2.145597E-21   -2.574615E-23   -2.600545E-25
        -2.379718E-27
  17     3.250030E-28    4.008826E-26    4.567986E-24    4.586593E-22    3.761393E-20    2.153478E-18    5.541534E-17   -1.178205E-15   -1.737700E-13   -4.835756E-12
         7.627125E-10    2.114281E-07    6.239092E-05    1.124465E-02    0.922143         18.8420        0.922143        1.124465E-02    6.239092E-05    2.114281E-07
         7.627075E-10   -4.835448E-12   -1.737689E-13   -1.178328E-15    5.541325E-17    2.153524E-18    3.761692E-20    4.584855E-22    4.565251E-24    4.005982E-26
         3.247556E-28
  18     3.712262E-29    4.498424E-27    5.105064E-25    5.251035E-23    4.690378E-21    3.394015E-19    1.734906E-17    1.658765E-16   -3.722000E-15   -4.235493E-13
        -9.936736E-12    2.220610E-09    4.959648E-07    9.769370E-05    1.124465E-02    0.603447        1.124465E-02    9.769370E-05    4.959654E-07    2.220554E-09
        -9.933009E-12   -4.236181E-13   -3.720225E-15    1.658986E-16    1.734932E-17    3.394191E-19    4.689555E-21    5.250542E-23    5.100981E-25    4.491480E-27
         3.704447E-29
  19     9.862141E-31    1.259996E-28    1.513031E-26    1.663720E-24    1.624584E-22    1.354659E-20    9.048107E-19    4.315298E-17    3.395433E-16   -7.385802E-15
        -6.753069E-13   -1.219845E-11    3.117181E-09    4.959647E-07    6.239092E-05    3.870473E-03    6.239092E-05    4.959654E-07    3.116960E-09   -1.217402E-11
        -6.763117E-13   -7.353042E-15    3.395739E-16    4.314807E-17    9.048753E-19    1.355092E-20    1.623981E-22    1.659050E-24    1.506321E-26    1.253904E-28
         9.821402E-31
  20     1.779653E-32    2.407565E-30    3.048900E-28    3.543782E-26    3.710301E-24    3.460251E-22    2.711097E-20    1.680122E-18    7.394229E-17    5.062754E-16
        -1.042922E-14   -7.807227E-13   -1.220428E-11    2.220634E-09    2.114281E-07    1.300101E-05    2.114281E-07    2.220554E-09   -1.217402E-11   -7.838962E-13
        -1.027015E-14    5.057340E-16    7.388769E-17    1.679836E-18    2.713811E-20    3.465388E-22    3.713385E-24    3.474651E-26    2.924623E-28    2.267928E-30
         1.654414E-32
  21     2.547651E-34    3.700077E-32    4.977347E-30    6.092830E-28    6.675291E-26    6.504878E-24    5.742480E-22    4.199814E-20    2.391620E-18    9.531543E-17
         5.765640E-16   -1.045676E-14   -6.748963E-13   -9.938168E-12    7.627142E-10    2.966408E-08    7.627075E-10   -9.933009E-12   -6.763117E-13   -1.027015E-14
         5.747814E-16    9.515600E-17    2.390312E-18    4.209060E-20    5.775417E-22    6.547845E-24    6.374694E-26    5.483185E-28    4.262747E-30    3.052479E-32
         2.047068E-34
  22     3.050092E-36    4.843328E-34    7.041258E-32    9.208261E-30    1.061689E-27    1.061017E-25    9.308844E-24    7.691362E-22    5.194591E-20    2.683462E-18
         9.533146E-17    5.064824E-16   -7.400393E-15   -4.235143E-13   -4.835835E-12    1.103779E-10   -4.835448E-12   -4.236181E-13   -7.353042E-15    5.057340E-16
         9.515600E-17    2.681598E-18    5.213442E-20    7.779496E-22    9.444942E-24    9.688785E-26    8.632007E-28    6.825672E-30    4.876810E-32    3.195614E-34
         1.944772E-36
  23     2.912490E-38    5.170503E-36    8.317654E-34    1.193909E-31    1.497779E-29    1.600328E-27    1.427575E-25    1.107611E-23    8.455050E-22    5.193236E-20
         2.391839E-18    7.395903E-17    3.395239E-16   -3.723022E-15   -1.737704E-13   -7.737866E-13   -1.737689E-13   -3.720225E-15    3.395739E-16    7.388769E-17
         2.390312E-18    5.213442E-20    8.580958E-22    1.131031E-23    1.239654E-25    1.160670E-27    9.478919E-30    6.867757E-32    4.476670E-34    2.654844E-36
         1.444525E-38
  24     2.082560E-40    4.229733E-38    7.685358E-36    1.235892E-33    1.729510E-31    2.055202E-29    2.010200E-27    1.592522E-25    1.106435E-23    7.679208E-22
         4.197923E-20    1.680302E-18    4.315613E-17    1.658648E-16   -1.178186E-15   -1.794642E-14   -1.178328E-15    1.658986E-16    4.314807E-17    1.679836E-18
[...]


end timestep


start timestep kper="2" kstp="109" mode="normal"

 UBDSV1 SAVING  STORAGE-AQUEOUS ON UNIT   1029 AT TIME STEP    109, STRESS PERIOD      2
 UBDSV1 SAVING     FLOW-JA-FACE ON UNIT   1029 AT TIME STEP    109, STRESS PERIOD      2
 UBDSV06 SAVING  SOURCE-SINK MIX IN MODEL GWT_P06-MF6      PACKAGE GWT_P06-MF6     CONNECTED TO MODEL GWT_P06-MF6      PACKAGE SSM              ON UNIT   1029 AT TIME STEP    109, STRESS PERIOD      2
1
  CONCENTRATION IN LAYER   1 AT END OF TIME STEP 109 IN STRESS PERIOD    2
  ---------------------------------------------------------------------------

                1               2               3               4               5               6               7               8               9              10
               11              12              13              14              15              16              17              18              19              20
               21              22              23              24              25              26              27              28              29              30
               31
 ................................................................................................................................................................................................................................................................................................................................................................................................................................................................................................................
   1      0.00000       -2.905912E-43   -2.346144E-40   -8.234791E-38   -1.675895E-35   -2.232969E-33   -2.074207E-31   -1.390607E-29   -6.852297E-28   -2.498586E-26
        -6.725719E-25   -1.322312E-23   -1.860565E-22   -1.789597E-21   -1.028443E-20   -3.338990E-20   -1.028416E-20   -1.789447E-21   -1.860149E-22   -1.321550E-23
        -6.716948E-25   -2.492264E-26   -6.822634E-28   -1.381213E-29   -2.053672E-31   -2.201803E-33   -1.643448E-35   -8.011390E-38   -2.252186E-40   -2.705833E-43
          0.00000    
   2    -2.905912E-43   -1.171432E-40   -4.228587E-38   -9.823432E-36   -1.516776E-33   -1.635564E-31   -1.274889E-29   -7.335323E-28   -3.147164E-26   -1.006711E-24
        -2.366623E-23   -3.914366E-22   -3.983147E-21   -1.058959E-20    2.981844E-19    2.688608E-18    2.981909E-19   -1.058591E-20   -3.982053E-21   -3.912110E-22
        -2.363662E-23   -1.004284E-24   -3.134243E-26   -7.288709E-28   -1.263165E-29   -1.614715E-31   -1.490566E-33   -9.593741E-36   -4.091812E-38   -1.116308E-40
        -2.701035E-43
   3    -2.346144E-40   -4.228587E-38   -7.824838E-36   -1.177455E-33   -1.342224E-31   -1.147484E-29   -7.388901E-28   -3.597216E-26   -1.319056E-24   -3.558489E-23
        -6.475131E-22   -4.979017E-21    1.181964E-19    4.765286E-18    7.506965E-17    4.709631E-16    7.506977E-17    4.765357E-18    1.182204E-19   -4.973282E-21
        -6.466322E-22   -3.550133E-23   -1.313943E-24   -3.575990E-26   -7.326859E-28   -1.134403E-29   -1.322036E-31   -1.154405E-33   -7.625963E-36   -4.089215E-38
        -2.248436E-40
   4    -8.234791E-38   -9.823432E-36   -1.177455E-33   -1.238161E-31   -1.063438E-29   -7.222337E-28   -3.818513E-26   -1.547412E-24   -4.618387E-23   -8.663214E-22
         1.185699E-22    7.166740E-19    2.909362E-17    6.832759E-16    9.184061E-15    5.362260E-14    9.184063E-15    6.832771E-16    2.909399E-17    7.167878E-19
         1.400834E-22   -8.638867E-22   -4.600952E-23   -1.538990E-24   -3.789704E-26   -7.150074E-28   -1.049783E-29   -1.218191E-31   -1.153963E-33   -9.585080E-36
        -7.998726E-38
   5    -1.675895E-35   -1.516776E-33   -1.342224E-31   -1.063438E-29   -7.128217E-28   -3.893577E-26   -1.678086E-24   -5.369308E-23   -9.882640E-22    1.469499E-20
         2.195531E-18    1.057907E-16    3.380647E-15    7.103531E-14    8.941722E-13    4.982738E-12    8.941723E-13    7.103533E-14    3.380653E-15    1.057922E-16
         2.195921E-18    1.475175E-20   -9.833561E-22   -5.341310E-23   -1.666813E-24   -3.860004E-26   -7.051485E-28   -1.049496E-29   -1.321223E-31   -1.489037E-33
        -1.640980E-35
   6    -2.232969E-33   -1.635564E-31   -1.147484E-29   -7.222337E-28   -3.893577E-26   -1.719417E-24   -5.745635E-23   -1.023156E-21    3.489870E-20    4.478211E-18
         2.610144E-16    1.064105E-14    3.064013E-13    5.988136E-12    7.128762E-11    3.790641E-10    7.128762E-11    5.988137E-12    3.064014E-13    1.064107E-14
         2.610187E-16    4.479134E-18    3.500594E-20   -1.015702E-21   -5.709956E-23   -1.706821E-24   -3.859199E-26   -7.146805E-28   -1.133561E-29   -1.613007E-31
        -2.198726E-33
   7    -2.074207E-31   -1.274889E-29   -7.388901E-28   -3.818513E-26   -1.678086E-24   -5.745635E-23   -1.024895E-21    4.986411E-20    6.713797E-18    4.638488E-16
         2.306211E-14    8.439917E-13    2.231560E-11    4.058520E-10    4.552086E-09    2.297682E-08    4.552086E-09    4.058520E-10    2.231560E-11    8.439918E-13
         2.306214E-14    4.638581E-16    6.715342E-18    5.001287E-20   -1.016176E-21   -5.708953E-23   -1.666222E-24   -3.787582E-26   -7.321125E-28   -1.261882E-29
        -2.051099E-31
   8    -1.390607E-29   -7.335323E-28   -3.597216E-26   -1.547412E-24   -5.369308E-23   -1.023156E-21    4.986411E-20    7.667730E-18    6.135332E-16    3.605184E-14
         1.599062E-12    5.300275E-11    1.279528E-09    2.145086E-08    2.245692E-07    1.067248E-06    2.245692E-07    2.145086E-08    1.279528E-09    5.300275E-11
         1.599062E-12    3.605190E-14    6.135472E-16    7.669607E-18    5.001787E-20   -1.015239E-21   -5.338892E-23   -1.538088E-24   -3.573330E-26   -7.282117E-28
        -1.379744E-29
   9    -6.852297E-28   -3.147164E-26   -1.319056E-24   -4.618387E-23   -9.882640E-22    3.489870E-20    6.713797E-18    6.135332E-16    4.172690E-14    2.177989E-12
         8.657317E-11    2.573850E-09    5.586071E-08    8.489276E-07    8.177193E-06    3.618243E-05    8.177193E-06    8.489276E-07    5.586071E-08    2.573850E-09
         8.657317E-11    2.177990E-12    4.172697E-14    6.135478E-16    6.715457E-18    3.501699E-20   -9.827344E-22   -4.598398E-23   -1.313107E-24   -3.131940E-26
        -6.816945E-28
  10    -2.498586E-26   -1.006711E-24   -3.558489E-23   -8.663214E-22    1.469499E-20    4.478211E-18    4.638488E-16    3.605184E-14    2.177989E-12    1.015007E-10
         3.579965E-09    9.369542E-08    1.784018E-06    2.395674E-05    2.078363E-04    8.430021E-04    2.078363E-04    2.395674E-05    1.784018E-06    9.369542E-08
         3.579965E-09    1.015007E-10    2.177990E-12    3.605190E-14    4.638592E-16    4.479271E-18    1.476155E-20   -8.634215E-22   -3.548410E-23   -1.003752E-24
        -2.490804E-26
  11    -6.725719E-25   -2.366623E-23   -6.475131E-22    1.185699E-22    2.195531E-18    2.610144E-16    2.306211E-14    1.599062E-12    8.657317E-11    3.579965E-09
         1.102954E-07    2.475858E-06    3.992812E-05    4.559102E-04    3.449010E-03    1.253749E-02    3.449010E-03    4.559102E-04    3.992812E-05    2.475858E-06
         1.102954E-07    3.579965E-09    8.657317E-11    1.599062E-12    2.306215E-14    2.610195E-16    2.196005E-18    1.451471E-22   -6.464129E-22   -2.362892E-23
        -6.714587E-25
  12    -1.322312E-23   -3.914366E-22   -4.979017E-21    7.166740E-19    1.057907E-16    1.064105E-14    8.439917E-13    5.300275E-11    2.573850E-09    9.369542E-08
         2.475858E-06    4.624170E-05    6.027931E-04    5.531467E-03    3.475015E-02    0.109490        3.475015E-02    5.531467E-03    6.027931E-04    4.624170E-05
         2.475858E-06    9.369542E-08    2.573850E-09    5.300275E-11    8.439918E-13    1.064107E-14    1.057925E-16    7.168171E-19   -4.971709E-21   -3.911469E-22
        -1.321327E-23
  13    -1.860565E-22   -3.983147E-21    1.181964E-19    2.909362E-17    3.380647E-15    3.064013E-13    2.231560E-11    1.279528E-09    5.586071E-08    1.784018E-06
         3.992812E-05    6.027931E-04    6.043129E-03    4.135347E-02    0.201154        0.523920        0.201154        4.135347E-02    6.043129E-03    6.027931E-04
         3.992812E-05    1.784018E-06    5.586071E-08    1.279528E-09    2.231560E-11    3.064014E-13    3.380654E-15    2.909408E-17    1.182263E-19   -3.981768E-21
        -1.860037E-22
  14    -1.789597E-21   -1.058959E-20    4.765286E-18    6.832759E-16    7.103531E-14    5.988136E-12    4.058520E-10    2.145086E-08    8.489276E-07    2.395674E-05
         4.559102E-04    5.531467E-03    4.135347E-02    0.197539        0.680643         1.37714        0.680643        0.197539        4.135347E-02    5.531467E-03
         4.559102E-04    2.395674E-05    8.489276E-07    2.145086E-08    4.058520E-10    5.988137E-12    7.103533E-14    6.832773E-16    4.765370E-18   -1.058521E-20
        -1.789417E-21
  15    -1.028443E-20    2.981844E-19    7.506965E-17    9.184061E-15    8.941722E-13    7.128762E-11    4.552086E-09    2.245692E-07    8.177193E-06    2.078363E-04
         3.449010E-03    3.475015E-02    0.201154        0.680643         1.67142         2.23703         1.67142        0.680643        0.201154        3.475015E-02
         3.449010E-03    2.078363E-04    8.177193E-06    2.245692E-07    4.552086E-09    7.128762E-11    8.941723E-13    9.184063E-15    7.506979E-17    2.981917E-19
        -1.028412E-20
  16    -3.338990E-20    2.688608E-18    4.709631E-16    5.362260E-14    4.982738E-12    3.790641E-10    2.297682E-08    1.067248E-06    3.618243E-05    8.430021E-04
         1.253749E-02    0.109490        0.523920         1.37714         2.23703         2.84267         2.23703         1.37714        0.523920        0.109490    
         1.253749E-02    8.430021E-04    3.618243E-05    1.067248E-06    2.297682E-08    3.790641E-10    4.982738E-12    5.362260E-14    4.709631E-16    2.688608E-18
        -3.338990E-20
  17    -1.028416E-20    2.981909E-19    7.506977E-17    9.184063E-15    8.941723E-13    7.128762E-11    4.552086E-09    2.245692E-07    8.177193E-06    2.078363E-04
         3.449010E-03    3.475015E-02    0.201154        0.680643         1.67142         2.23703         1.67142        0.680643        0.201154        3.475015E-02
         3.449010E-03    2.078363E-04    8.177193E-06    2.245692E-07    4.552086E-09    7.128762E-11    8.941722E-13    9.184061E-15    7.506965E-17    2.981844E-19
        -1.028443E-20
  18    -1.789447E-21   -1.058591E-20    4.765357E-18    6.832771E-16    7.103533E-14    5.988137E-12    4.058520E-10    2.145086E-08    8.489276E-07    2.395674E-05
         4.559102E-04    5.531467E-03    4.135347E-02    0.197539        0.680643         1.37714        0.680643        0.197539        4.135347E-02    5.531467E-03
         4.559102E-04    2.395674E-05    8.489276E-07    2.145086E-08    4.058520E-10    5.988136E-12    7.103531E-14    6.832759E-16    4.765286E-18   -1.058959E-20
        -1.789597E-21
  19    -1.860149E-22   -3.982053E-21    1.182204E-19    2.909399E-17    3.380653E-15    3.064014E-13    2.231560E-11    1.279528E-09    5.586071E-08    1.784018E-06
         3.992812E-05    6.027931E-04    6.043129E-03    4.135347E-02    0.201154        0.523920        0.201154        4.135347E-02    6.043129E-03    6.027931E-04
         3.992812E-05    1.784018E-06    5.586071E-08    1.279528E-09    2.231560E-11    3.064013E-13    3.380647E-15    2.909362E-17    1.181964E-19   -3.983147E-21
        -1.860565E-22
  20    -1.321550E-23   -3.912110E-22   -4.973282E-21    7.167878E-19    1.057922E-16    1.064107E-14    8.439918E-13    5.300275E-11    2.573850E-09    9.369542E-08
         2.475858E-06    4.624170E-05    6.027931E-04    5.531467E-03    3.475015E-02    0.109490        3.475015E-02    5.531467E-03    6.027931E-04    4.624170E-05
         2.475858E-06    9.369542E-08    2.573850E-09    5.300275E-11    8.439917E-13    1.064105E-14    1.057907E-16    7.166740E-19   -4.979016E-21   -3.914366E-22
        -1.322312E-23
  21    -6.716948E-25   -2.363662E-23   -6.466322E-22    1.400834E-22    2.195921E-18    2.610187E-16    2.306214E-14    1.599062E-12    8.657317E-11    3.579965E-09
         1.102954E-07    2.475858E-06    3.992812E-05    4.559102E-04    3.449010E-03    1.253749E-02    3.449010E-03    4.559102E-04    3.992812E-05    2.475858E-06
         1.102954E-07    3.579965E-09    8.657317E-11    1.599062E-12    2.306211E-14    2.610144E-16    2.195531E-18    1.185700E-22   -6.475131E-22   -2.366623E-23
        -6.725719E-25
  22    -2.492264E-26   -1.004284E-24   -3.550133E-23   -8.638867E-22    1.475175E-20    4.479134E-18    4.638581E-16    3.605190E-14    2.177990E-12    1.015007E-10
         3.579965E-09    9.369542E-08    1.784018E-06    2.395674E-05    2.078363E-04    8.430021E-04    2.078363E-04    2.395674E-05    1.784018E-06    9.369542E-08
         3.579965E-09    1.015007E-10    2.177989E-12    3.605184E-14    4.638488E-16    4.478211E-18    1.469499E-20   -8.663214E-22   -3.558489E-23   -1.006711E-24
        -2.498586E-26
  23    -6.822634E-28   -3.134243E-26   -1.313943E-24   -4.600952E-23   -9.833561E-22    3.500594E-20    6.715342E-18    6.135472E-16    4.172697E-14    2.177990E-12
         8.657317E-11    2.573850E-09    5.586071E-08    8.489276E-07    8.177193E-06    3.618243E-05    8.177193E-06    8.489276E-07    5.586071E-08    2.573850E-09
         8.657317E-11    2.177989E-12    4.172690E-14    6.135332E-16    6.713797E-18    3.489870E-20   -9.882640E-22   -4.618387E-23   -1.319056E-24   -3.147164E-26
        -6.852297E-28
  24    -1.381213E-29   -7.288709E-28   -3.575990E-26   -1.538990E-24   -5.341310E-23   -1.015702E-21    5.001287E-20    7.669607E-18    6.135478E-16    3.605190E-14
         1.599062E-12    5.300275E-11    1.279528E-09    2.145086E-08    2.245692E-07    1.067248E-06    2.245692E-07    2.145086E-08    1.279528E-09    5.300275E-11
         1.599062E-12    3.605184E-14    6.135332E-16    7.667730E-18    4.986411E-20   -1.023156E-21   -5.369308E-23   -1.547412E-24   -3.597215E-26   -7.335323E-28
        -1.390607E-29
  25    -2.053672E-31   -1.263165E-29   -7.326859E-28   -3.789704E-26   -1.666813E-24   -5.709956E-23   -1.016176E-21    5.001787E-20    6.715457E-18    4.638592E-16
         2.306215E-14    8.439918E-13    2.231560E-11    4.058520E-10    4.552086E-09    2.297682E-08    4.552086E-09    4.058520E-10    2.231560E-11    8.439917E-13
         2.306211E-14    4.638488E-16    6.713797E-18    4.986411E-20   -1.024895E-21   -5.745635E-23   -1.678086E-24   -3.818513E-26   -7.388901E-28   -1.274889E-29
        -2.074207E-31
  26    -2.201803E-33   -1.614715E-31   -1.134403E-29   -7.150074E-28   -3.860004E-26   -1.706821E-24   -5.708953E-23   -1.015239E-21    3.501699E-20    4.479271E-18
         2.610195E-16    1.064107E-14    3.064014E-13    5.988137E-12    7.128762E-11    3.790641E-10    7.128762E-11    5.988136E-12    3.064013E-13    1.064105E-14
         2.610144E-16    4.478211E-18    3.489870E-20   -1.023156E-21   -5.745635E-23   -1.719417E-24   -3.893577E-26   -7.222337E-28   -1.147484E-29   -1.635564E-31
        -2.232969E-33
  27    -1.643448E-35   -1.490566E-33   -1.322036E-31   -1.049783E-29   -7.051485E-28   -3.859199E-26   -1.666222E-24   -5.338892E-23   -9.827344E-22    1.476155E-20
         2.196005E-18    1.057925E-16    3.380654E-15    7.103533E-14    8.941723E-13    4.982738E-12    8.941722E-13    7.103531E-14    3.380647E-15    1.057907E-16
         2.195531E-18    1.469499E-20   -9.882640E-22   -5.369308E-23   -1.678086E-24   -3.893577E-26   -7.128217E-28   -1.063438E-29   -1.342224E-31   -1.516776E-33
        -1.675895E-35
  28    -8.011390E-38   -9.593741E-36   -1.154405E-33   -1.218191E-31   -1.049496E-29   -7.146805E-28   -3.787582E-26   -1.538088E-24   -4.598398E-23   -8.634215E-22
         1.451471E-22    7.168171E-19    2.909408E-17    6.832773E-16    9.184063E-15    5.362260E-14    9.184061E-15    6.832759E-16    2.909362E-17    7.166740E-19
         1.185700E-22   -8.663214E-22   -4.618387E-23   -1.547412E-24   -3.818513E-26   -7.222337E-28   -1.063438E-29   -1.238161E-31   -1.177455E-33   -9.823432E-36
        -8.234790E-38
  29    -2.252186E-40   -4.091812E-38   -7.625963E-36   -1.153963E-33   -1.321223E-31   -1.133561E-29   -7.321125E-28   -3.573330E-26   -1.313107E-24   -3.548410E-23
        -6.464129E-22   -4.971709E-21    1.182263E-19    4.765370E-18    7.506979E-17    4.709631E-16    7.506965E-17    4.765286E-18    1.181964E-19   -4.979016E-21
        -6.475131E-22   -3.558489E-23   -1.319056E-24   -3.597215E-26   -7.388901E-28   -1.147484E-29   -1.342224E-31   -1.177455E-33   -7.824838E-36   -4.228587E-38
        -2.346143E-40
  30    -2.705833E-43   -1.116308E-40   -4.089215E-38   -9.585080E-36   -1.489037E-33   -1.613007E-31   -1.261882E-29   -7.282117E-28   -3.131940E-26   -1.003752E-24
        -2.362892E-23   -3.911469E-22   -3.981768E-21   -1.058521E-20    2.981917E-19    2.688608E-18    2.981844E-19   -1.058959E-20   -3.983147E-21   -3.914366E-22
        -2.366623E-23   -1.006711E-24   -3.147164E-26   -7.335323E-28   -1.274889E-29   -1.635564E-31   -1.516776E-33   -9.823432E-36   -4.228587E-38   -1.171432E-40
        -2.905912E-43
  31      0.00000       -2.701035E-43   -2.248436E-40   -7.998726E-38   -1.640980E-35   -2.198726E-33   -2.051099E-31   -1.379744E-29   -6.816945E-28   -2.490804E-26
        -6.714587E-25   -1.321327E-23   -1.860037E-22   -1.789417E-21   -1.028412E-20   -3.338990E-20   -1.028443E-20   -1.789597E-21   -1.860565E-22   -1.322312E-23
        -6.725719E-25   -2.498586E-26   -6.852297E-28   -1.390607E-29   -2.074207E-31   -2.232969E-33   -1.675895E-35   -8.234790E-38   -2.346143E-40   -2.905912E-43
          0.00000    

 CONCENTRATION WILL BE SAVED ON UNIT 1030 AT END OF TIME STEP  109, STRESS PERIOD    2


  MASS BUDGET FOR ENTIRE MODEL AT END OF TIME STEP  109, STRESS PERIOD   2
  ---------------------------------------------------------------------------------------------------

     CUMULATIVE MASS      M       RATES FOR THIS TIME STEP      M/T          PACKAGE NAME    
     ------------------                 ------------------------                     ----------------

           IN:                                      IN:
           ---                                      ---
     STORAGE-AQUEOUS =  7689517795.0000       STORAGE-AQUEOUS =      245607.2580     MST                              
                 WEL =  7884000000.0000                   WEL =           0.0000     SSM_WEL-1                        
                 CHD =           0.0000                   CHD =           0.0000     SSM_CHD-1                        

            TOTAL IN = 15573517795.0000              TOTAL IN =      245607.2580

          OUT:                                     OUT:
          ----                                     ----
     STORAGE-AQUEOUS =  7888719661.9915       STORAGE-AQUEOUS =           0.8640     MST                              
                 WEL =  7684798133.0086                   WEL =      245606.3940     SSM_WEL-1                        
                 CHD =       7.5562E-18                   CHD =           0.0000     SSM_CHD-1                        

           TOTAL OUT = 15573517795.0002             TOTAL OUT =      245607.2580

            IN - OUT =      -2.1553E-04              IN - OUT =      -6.3766E-08

 PERCENT DISCREPANCY =          -0.00     PERCENT DISCREPANCY =          -0.00




         TIME SUMMARY AT END OF TIME STEP  109 IN STRESS PERIOD    2
                    SECONDS     MINUTES      HOURS       DAYS        YEARS
                    -----------------------------------------------------------
   TIME STEP LENGTH 2.16991E+06  36165.      602.75      25.115     6.87602E-02
 STRESS PERIOD TIME 2.36520E+08 3.94200E+06  65700.      2737.5      7.4949    
         TOTAL TIME 3.15360E+08 5.25600E+06  87600.      3650.0      9.9932    


end timestep

