                                   MODFLOW 6
                U.S. GEOLOGICAL SURVEY MODULAR HYDROLOGIC MODEL
                          GROUNDWATER FLOW MODEL (GWF)
                            VERSION 6.6.1 02/10/2025

   MODFLOW 6 compiled Feb 14 2025 13:40:10 with Intel(R) Fortran Intel(R) 64
   Compiler Classic for applications running on Intel(R) 64, Version 2021.7.0
                             Build 20220726_000000

This software has been approved for release by the U.S. Geological 
Survey (USGS). Although the software has been subjected to rigorous 
review, the USGS reserves the right to update the software as needed 
pursuant to further analysis and review. No warranty, expressed or 
implied, is made by the USGS or the U.S. Government as to the 
functionality of the software and related material nor shall the 
fact of release constitute any such warranty. Furthermore, the 
software is released on condition that neither the USGS nor the U.S. 
Government shall be held liable for any damages resulting from its 
authorized or unauthorized use. Also refer to the USGS Water 
Resources Software User Rights Notice for complete use, copyright, 
and distribution information.


As a work of the United States Government, this USGS product is 
in the public domain within the United States. You can copy, 
modify, distribute, and perform the work, even for commercial 
purposes, all without asking permission. Additionally, USGS 
waives copyright and related rights in the work worldwide 
through CC0 1.0 Universal Public Domain Dedication 
(https://creativecommons.org/publicdomain/zero/1.0/).

The following GNU Lesser General Public License (LGPL) libraries
are used in this USGS product:

    SPARSKIT version 2.0
      ilut, luson, and qsplit 
      (https://www-users.cse.umn.edu/~saad/software/SPARSKIT/)

    RCM - Reverse Cuthill McKee Ordering
      (https://people.math.sc.edu/Burkardt/f_src/rcm/rcm.html)

    BLAS - Basic Linear Algebra Subprograms Level 1
      (https://people.math.sc.edu/Burkardt/f_src/blas1_d/blas1_d.html)

    SPARSEKIT - Sparse Matrix Utility Package
      amux, dperm, dvperm, rperm, and cperm
      (https://people.sc.fsu.edu/~jburkardt/f77_src/sparsekit/sparsekit.html)

The following BSD-3 License libraries are used in this USGS product:

    Modern Fortran DAG Library
      Copyright (c) 2018, Jacob Williams
      All rights reserved.
      (https://github.com/jacobwilliams/daglib)

MODFLOW 6 compiler options: /O2 /heap-arrays:0 /fpe:0 /traceback /nologo /fpp
/c /module:win64\mod_mf6\ /object:win64\obj_mf6\

System command used to initiate simulation:
C:\Users\gross.DESKTOP-AIRQM2M\anaconda3\Scripts\mf6.exe

MODFLOW was compiled using uniform precision.

Real Variables
  KIND: 8
  TINY (smallest non-zero value):    2.225074-308
  HUGE (largest value):    1.797693+308
  PRECISION: 15
  SIZE IN BITS: 64

Integer Variables
  KIND: 4
  HUGE (largest value): 2147483647
  SIZE IN BITS: 32

Long Integer Variables
  KIND: 8
  HUGE (largest value): 9223372036854775807
  SIZE IN BITS: 64

Logical Variables
  KIND: 4
  SIZE IN BITS: 32
 
 NAMEFILE OPTIONS:
    FLOWS WILL BE SAVED TO BUDGET FILE SPECIFIED IN OUTPUT CONTROL
 END NAMEFILE OPTIONS:

 DIS -- STRUCTURED GRID DISCRETIZATION PACKAGE, VERSION 2 : 3/27/2014 - INPUT READ FROM MEMPATH: __INPUT__/EX-GWF-BUMP/DIS                         


 NPF -- NODE PROPERTY FLOW PACKAGE, VERSION 1, 3/30/2015 INPUT READ FROM MEMPATH: __INPUT__/EX-GWF-BUMP/NPF                         


 IC -- Initial Conditions Package, Version 8, 3/28/2015 input read from mempath: __INPUT__/EX-GWF-BUMP/IC                          


 Setting Discretization Options
    Model length unit [0=UND, 1=FEET, 2=METERS, 3=CENTIMETERS] set as 2
 End Setting Discretization Options

 Setting Discretization Dimensions
    NLAY = 1
    NROW = 51
    NCOL = 51
 End Setting Discretization Dimensions

 Setting Discretization Griddata
    DELR set from input file
    DELC set from input file
    TOP set from input file
    BOTM set from input file
 End Setting Discretization Griddata

 Setting NPF Options
    Specific discharge will be calculated at cell centers and written to DATA-SPDIS in budget file when requested.
    Rewetting is active.
    Wetting factor (WETFCT) has been set to:     1.00000    
    Wetting iteration interval (IWETIT) has been set to:     1
    Head rewet equation (IHDWET) has been set to:     0
 End Setting NPF Options

 Setting NPF Griddata
    ICELLTYPE set from input file
    K set from input file
    K33 not provided.  Setting K33 = K.
    K22 not provided.  Setting K22 = K.
    WETDRY set from input file
 End Setting NPF Griddata


 CHD   -- CHD PACKAGE, VERSION 8, 2/22/2014 INPUT READ FROM MEMPATH: __INPUT__/EX-GWF-BUMP/CHD_0                       

 PROCESSING CHD BASE OPTIONS
 END OF CHD BASE OPTIONS

 PROCESSING CHD BASE DIMENSIONS
    MAXBOUND =     102
 END OF CHD BASE DIMENSIONS
    STRT set from input file

 CELL CONVERSIONS FOR ITER.=0  STEP=0  PERIOD=0   (NODE or LRC)
     DRY           (1,20,24) DRY           (1,20,25) DRY           (1,20,26) DRY           (1,20,27) DRY           (1,20,28)
     DRY           (1,21,23) DRY           (1,21,24) DRY           (1,21,25) DRY           (1,21,26) DRY           (1,21,27)
     DRY           (1,21,28) DRY           (1,21,29) DRY           (1,22,22) DRY           (1,22,23) DRY           (1,22,24)
     DRY           (1,22,25) DRY           (1,22,26) DRY           (1,22,27) DRY           (1,22,28) DRY           (1,22,29)
     DRY           (1,22,30) DRY           (1,23,21) DRY           (1,23,22) DRY           (1,23,23) DRY           (1,23,24)
     DRY           (1,23,25) DRY           (1,23,26) DRY           (1,23,27) DRY           (1,23,28) DRY           (1,23,29)
     DRY           (1,23,30) DRY           (1,23,31) DRY           (1,24,20) DRY           (1,24,21) DRY           (1,24,22)
     DRY           (1,24,23) DRY           (1,24,24) DRY           (1,24,25) DRY           (1,24,26) DRY           (1,24,27)
     DRY           (1,24,28) DRY           (1,24,29) DRY           (1,24,30) DRY           (1,24,31) DRY           (1,24,32)
     DRY           (1,25,20) DRY           (1,25,21) DRY           (1,25,22) DRY           (1,25,23) DRY           (1,25,24)
     DRY           (1,25,25) DRY           (1,25,26) DRY           (1,25,27) DRY           (1,25,28) DRY           (1,25,29)
     DRY           (1,25,30) DRY           (1,25,31) DRY           (1,25,32) DRY           (1,26,20) DRY           (1,26,21)
     DRY           (1,26,22) DRY           (1,26,23) DRY           (1,26,24) DRY           (1,26,25) DRY           (1,26,26)
     DRY           (1,26,27) DRY           (1,26,28) DRY           (1,26,29) DRY           (1,26,30) DRY           (1,26,31)
     DRY           (1,26,32) DRY           (1,27,20) DRY           (1,27,21) DRY           (1,27,22) DRY           (1,27,23)
     DRY           (1,27,24) DRY           (1,27,25) DRY           (1,27,26) DRY           (1,27,27) DRY           (1,27,28)
     DRY           (1,27,29) DRY           (1,27,30) DRY           (1,27,31) DRY           (1,27,32) DRY           (1,28,20)
     DRY           (1,28,21) DRY           (1,28,22) DRY           (1,28,23) DRY           (1,28,24) DRY           (1,28,25)
     DRY           (1,28,26) DRY           (1,28,27) DRY           (1,28,28) DRY           (1,28,29) DRY           (1,28,30)
     DRY           (1,28,31) DRY           (1,28,32) DRY           (1,29,21) DRY           (1,29,22) DRY           (1,29,23)
     DRY           (1,29,24) DRY           (1,29,25) DRY           (1,29,26) DRY           (1,29,27) DRY           (1,29,28)
     DRY           (1,29,29) DRY           (1,29,30) DRY           (1,29,31) DRY           (1,30,22) DRY           (1,30,23)
     DRY           (1,30,24) DRY           (1,30,25) DRY           (1,30,26) DRY           (1,30,27) DRY           (1,30,28)
     DRY           (1,30,29) DRY           (1,30,30) DRY           (1,31,23) DRY           (1,31,24) DRY           (1,31,25)
     DRY           (1,31,26) DRY           (1,31,27) DRY           (1,31,28) DRY           (1,31,29) DRY           (1,32,24)
     DRY           (1,32,25) DRY           (1,32,26) DRY           (1,32,27) DRY           (1,32,28)
    BINARY GRID INFORMATION WILL BE WRITTEN TO:
      UNIT NUMBER: 1011
      FILE NAME: ex-gwf-bump.dis.grb

 OPENED ex-gwf-bump.dis.grb
 FILE TYPE:DATA(BINARY)   UNIT 1011   STATUS:REPLACE             
 FORMAT:UNFORMATTED            ACCESS:STREAM              
 ACTION:READWRITE           

      THE LAST TIME STEP WILL BE PRINTED
      THE LAST TIME STEP WILL BE PRINTED
 # File generated by Flopy version 3.9.1 on 05/12/2025 at 07:13:38.

 PROCESSING OC OPTIONS

    BUDGET INFORMATION WILL BE WRITTEN TO:
      UNIT NUMBER: 1012
      FILE NAME: ex-gwf-bump.cbc

 OPENED ex-gwf-bump.cbc
 FILE TYPE:DATA(BINARY)   UNIT 1012   STATUS:REPLACE             
 FORMAT:UNFORMATTED            ACCESS:STREAM              
 ACTION:READWRITE           

    HEAD INFORMATION WILL BE WRITTEN TO:
      UNIT NUMBER: 1013
      FILE NAME: ex-gwf-bump.hds

 OPENED ex-gwf-bump.hds
 FILE TYPE:DATA(BINARY)   UNIT 1013   STATUS:REPLACE             
 FORMAT:UNFORMATTED            ACCESS:STREAM              
 ACTION:READWRITE           

 END OF OC OPTIONS

start timestep kper="1" kstp="1" mode="normal"


 BEGIN READING OUTPUT CONTROL FOR STRESS PERIOD 1
      ALL TIME STEPS WILL BE SAVED
      ALL TIME STEPS WILL BE SAVED

 END READING OUTPUT CONTROL FOR STRESS PERIOD 1

 CELL CONVERSIONS FOR ITER.=2  STEP=1  PERIOD=1   (NODE or LRC)
     DRY           (1,13,27) DRY           (1,13,28) DRY           (1,13,29) DRY           (1,13,30) DRY           (1,13,31)
     DRY           (1,13,32) DRY           (1,13,33) DRY           (1,13,34) DRY           (1,13,35) DRY           (1,14,25)
     DRY           (1,14,26) DRY           (1,14,27) DRY           (1,14,28) DRY           (1,14,29) DRY           (1,14,30)
     DRY           (1,14,31) DRY           (1,14,32) DRY           (1,14,33) DRY           (1,14,34) DRY           (1,14,35)
     DRY           (1,14,36) DRY           (1,14,37) DRY           (1,15,24) DRY           (1,15,25) DRY           (1,15,26)
     DRY           (1,15,27) DRY           (1,15,28) DRY           (1,15,29) DRY           (1,15,30) DRY           (1,15,31)
     DRY           (1,15,32) DRY           (1,15,33) DRY           (1,15,34) DRY           (1,15,35) DRY           (1,15,36)
     DRY           (1,15,37) DRY           (1,15,38) DRY           (1,15,39) DRY           (1,16,22) DRY           (1,16,23)
     DRY           (1,16,24) DRY           (1,16,25) DRY           (1,16,26) DRY           (1,16,27) DRY           (1,16,28)
     DRY           (1,16,29) DRY           (1,16,30) DRY           (1,16,31) DRY           (1,16,32) DRY           (1,16,33)
     DRY           (1,16,34) DRY           (1,16,35) DRY           (1,16,36) DRY           (1,16,37) DRY           (1,16,38)
     DRY           (1,16,39) DRY           (1,16,40) DRY           (1,17,22) DRY           (1,17,23) DRY           (1,17,24)
     DRY           (1,17,25) DRY           (1,17,26) DRY           (1,17,27) DRY           (1,17,28) DRY           (1,17,29)
     DRY           (1,17,30) DRY           (1,17,31) DRY           (1,17,32) DRY           (1,17,33) DRY           (1,17,34)
     DRY           (1,17,35) DRY           (1,17,36) DRY           (1,17,37) DRY           (1,17,38) DRY           (1,17,39)
     DRY           (1,17,40) DRY           (1,17,41) DRY           (1,18,21) DRY           (1,18,22) DRY           (1,18,23)
     DRY           (1,18,24) DRY           (1,18,25) DRY           (1,18,26) DRY           (1,18,27) DRY           (1,18,28)
     DRY           (1,18,29) DRY           (1,18,30) DRY           (1,18,31) DRY           (1,18,32) DRY           (1,18,33)
     DRY           (1,18,34) DRY           (1,18,35) DRY           (1,18,36) DRY           (1,18,37) DRY           (1,18,38)
     DRY           (1,18,39) DRY           (1,18,40) DRY           (1,18,41) DRY           (1,19,20) DRY           (1,19,21)
     DRY           (1,19,22) DRY           (1,19,23) DRY           (1,19,24) DRY           (1,19,25) DRY           (1,19,26)
     DRY           (1,19,27) DRY           (1,19,28) DRY           (1,19,29) DRY           (1,19,30) DRY           (1,19,31)
     DRY           (1,19,32) DRY           (1,19,33) DRY           (1,19,34) DRY           (1,19,35) DRY           (1,19,36)
     DRY           (1,19,37) DRY           (1,19,38) DRY           (1,19,39) DRY           (1,19,40) DRY           (1,19,41)
     DRY           (1,19,42) DRY           (1,20,20) DRY           (1,20,21) DRY           (1,20,22) DRY           (1,20,23)
     DRY           (1,20,29) DRY           (1,20,30) DRY           (1,20,31) DRY           (1,20,32) DRY           (1,20,33)
     DRY           (1,20,34) DRY           (1,20,35) DRY           (1,20,36) DRY           (1,20,37) DRY           (1,20,38)
     DRY           (1,20,39) DRY           (1,20,40) DRY           (1,20,41) DRY           (1,20,42) DRY           (1,20,43)
     DRY           (1,21,19) DRY           (1,21,20) DRY           (1,21,21) DRY           (1,21,22) DRY           (1,21,30)
     DRY           (1,21,31) DRY           (1,21,32) DRY           (1,21,33) DRY           (1,21,34) DRY           (1,21,35)
     DRY           (1,21,36) DRY           (1,21,37) DRY           (1,21,38) DRY           (1,21,39) DRY           (1,21,40)
     DRY           (1,21,41) DRY           (1,21,42) DRY           (1,21,43) DRY           (1,22,19) DRY           (1,22,20)
     DRY           (1,22,21) DRY           (1,22,31) DRY           (1,22,32) DRY           (1,22,33) DRY           (1,22,34)
     DRY           (1,22,35) DRY           (1,22,36) DRY           (1,22,37) DRY           (1,22,38) DRY           (1,22,39)
     DRY           (1,22,40) DRY           (1,22,41) DRY           (1,22,42) DRY           (1,22,43) DRY           (1,23,19)
     DRY           (1,23,20) DRY           (1,23,32) DRY           (1,23,33) DRY           (1,23,34) DRY           (1,23,35)
     DRY           (1,23,36) DRY           (1,23,37) DRY           (1,23,38) DRY           (1,23,39) DRY           (1,23,40)
     DRY           (1,23,41) DRY           (1,23,42) DRY           (1,23,43) DRY           (1,23,44) DRY           (1,24,19)
     DRY           (1,24,33) DRY           (1,24,34) DRY           (1,24,35) DRY           (1,24,36) DRY           (1,24,37)
     DRY           (1,24,38) DRY           (1,24,39) DRY           (1,24,40) DRY           (1,24,41) DRY           (1,24,42)
     DRY           (1,24,43) DRY           (1,24,44) DRY           (1,25,19) DRY           (1,25,33) DRY           (1,25,34)
     DRY           (1,25,35) DRY           (1,25,36) DRY           (1,25,37) DRY           (1,25,38) DRY           (1,25,39)
     DRY           (1,25,40) DRY           (1,25,41) DRY           (1,25,42) DRY           (1,25,43) DRY           (1,25,44)
     DRY           (1,26,18) DRY           (1,26,19) DRY           (1,26,33) DRY           (1,26,34) DRY           (1,26,35)
     DRY           (1,26,36) DRY           (1,26,37) DRY           (1,26,38) DRY           (1,26,39) DRY           (1,26,40)
     DRY           (1,26,41) DRY           (1,26,42) DRY           (1,26,43) DRY           (1,26,44) DRY           (1,27,19)
     DRY           (1,27,33) DRY           (1,27,34) DRY           (1,27,35) DRY           (1,27,36) DRY           (1,27,37)
     DRY           (1,27,38) DRY           (1,27,39) DRY           (1,27,40) DRY           (1,27,41) DRY           (1,27,42)
     DRY           (1,27,43) DRY           (1,27,44) DRY           (1,28,19) DRY           (1,28,33) DRY           (1,28,34)
     DRY           (1,28,35) DRY           (1,28,36) DRY           (1,28,37) DRY           (1,28,38) DRY           (1,28,39)
     DRY           (1,28,40) DRY           (1,28,41) DRY           (1,28,42) DRY           (1,28,43) DRY           (1,28,44)
     DRY           (1,29,19) DRY           (1,29,20) DRY           (1,29,32) DRY           (1,29,33) DRY           (1,29,34)
     DRY           (1,29,35) DRY           (1,29,36) DRY           (1,29,37) DRY           (1,29,38) DRY           (1,29,39)
     DRY           (1,29,40) DRY           (1,29,41) DRY           (1,29,42) DRY           (1,29,43) DRY           (1,29,44)
     DRY           (1,30,19) DRY           (1,30,20) DRY           (1,30,21) DRY           (1,30,31) DRY           (1,30,32)
     DRY           (1,30,33) DRY           (1,30,34) DRY           (1,30,35) DRY           (1,30,36) DRY           (1,30,37)
     DRY           (1,30,38) DRY           (1,30,39) DRY           (1,30,40) DRY           (1,30,41) DRY           (1,30,42)
     DRY           (1,30,43) DRY           (1,31,19) DRY           (1,31,20) DRY           (1,31,21) DRY           (1,31,22)
     DRY           (1,31,30) DRY           (1,31,31) DRY           (1,31,32) DRY           (1,31,33) DRY           (1,31,34)
     DRY           (1,31,35) DRY           (1,31,36) DRY           (1,31,37) DRY           (1,31,38) DRY           (1,31,39)
     DRY           (1,31,40) DRY           (1,31,41) DRY           (1,31,42) DRY           (1,31,43) DRY           (1,32,20)
     DRY           (1,32,21) DRY           (1,32,22) DRY           (1,32,23) DRY           (1,32,29) DRY           (1,32,30)
     DRY           (1,32,31) DRY           (1,32,32) DRY           (1,32,33) DRY           (1,32,34) DRY           (1,32,35)
     DRY           (1,32,36) DRY           (1,32,37) DRY           (1,32,38) DRY           (1,32,39) DRY           (1,32,40)
     DRY           (1,32,41) DRY           (1,32,42) DRY           (1,32,43) DRY           (1,33,20) DRY           (1,33,21)
     DRY           (1,33,22) DRY           (1,33,23) DRY           (1,33,24) DRY           (1,33,25) DRY           (1,33,26)
     DRY           (1,33,27) DRY           (1,33,28) DRY           (1,33,29) DRY           (1,33,30) DRY           (1,33,31)
     DRY           (1,33,32) DRY           (1,33,33) DRY           (1,33,34) DRY           (1,33,35) DRY           (1,33,36)
     DRY           (1,33,37) DRY           (1,33,38) DRY           (1,33,39) DRY           (1,33,40) DRY           (1,33,41)
     DRY           (1,33,42) DRY           (1,34,21) DRY           (1,34,22) DRY           (1,34,23) DRY           (1,34,24)
     DRY           (1,34,25) DRY           (1,34,26) DRY           (1,34,27) DRY           (1,34,28) DRY           (1,34,29)
     DRY           (1,34,30) DRY           (1,34,31) DRY           (1,34,32) DRY           (1,34,33) DRY           (1,34,34)
     DRY           (1,34,35) DRY           (1,34,36) DRY           (1,34,37) DRY           (1,34,38) DRY           (1,34,39)
     DRY           (1,34,40) DRY           (1,34,41) DRY           (1,35,22) DRY           (1,35,23) DRY           (1,35,24)
     DRY           (1,35,25) DRY           (1,35,26) DRY           (1,35,27) DRY           (1,35,28) DRY           (1,35,29)
     DRY           (1,35,30) DRY           (1,35,31) DRY           (1,35,32) DRY           (1,35,33) DRY           (1,35,34)
     DRY           (1,35,35) DRY           (1,35,36) DRY           (1,35,37) DRY           (1,35,38) DRY           (1,35,39)
     DRY           (1,35,40) DRY           (1,35,41) DRY           (1,36,22) DRY           (1,36,23) DRY           (1,36,24)
     DRY           (1,36,25) DRY           (1,36,26) DRY           (1,36,27) DRY           (1,36,28) DRY           (1,36,29)
     DRY           (1,36,30) DRY           (1,36,31) DRY           (1,36,32) DRY           (1,36,33) DRY           (1,36,34)
     DRY           (1,36,35) DRY           (1,36,36) DRY           (1,36,37) DRY           (1,36,38) DRY           (1,36,39)
     DRY           (1,36,40) DRY           (1,37,24) DRY           (1,37,25) DRY           (1,37,26) DRY           (1,37,27)
     DRY           (1,37,28) DRY           (1,37,29) DRY           (1,37,30) DRY           (1,37,31) DRY           (1,37,32)
     DRY           (1,37,33) DRY           (1,37,34) DRY           (1,37,35) DRY           (1,37,36) DRY           (1,37,37)
     DRY           (1,37,38) DRY           (1,37,39) DRY           (1,38,25) DRY           (1,38,26) DRY           (1,38,27)
     DRY           (1,38,28) DRY           (1,38,29) DRY           (1,38,30) DRY           (1,38,31) DRY           (1,38,32)
     DRY           (1,38,33) DRY           (1,38,34) DRY           (1,38,35) DRY           (1,38,36) DRY           (1,38,37)
     DRY           (1,39,27) DRY           (1,39,28) DRY           (1,39,29) DRY           (1,39,30) DRY           (1,39,31)
     DRY           (1,39,32) DRY           (1,39,33) DRY           (1,39,34) DRY           (1,39,35)

 CELL CONVERSIONS FOR ITER.=3  STEP=1  PERIOD=1   (NODE or LRC)
     DRY           (1,18,42) DRY           (1,19,43) DRY           (1,21,44) DRY           (1,22,44) DRY           (1,25,45)
     DRY           (1,26,45) DRY           (1,27,45) DRY           (1,30,44) DRY           (1,31,44) DRY           (1,33,43)
     DRY           (1,34,42)

 SLN_1 INNER ITERATION SUMMARY
 --------------------------------------------------------------------------------------------------------------------------------------
      TOTAL      OUTER      INNER                                                            MAXIMUM                                   
  ITERATION  ITERATION  ITERATION  MAXIMUM CHANGE      MAXIMUM CHANGE MODEL-(CELLID)        RESIDUAL    MAXIMUM RESIDUAL MODEL-(CELLID)
 --------------------------------------------------------------------------------------------------------------------------------------
          1          1          1      -2.9764316                    1_GWF-(1,51,50)       9.3274010                     1_GWF-(1,2,49)
          2          1          2      -1.9422949                    1_GWF-(1,22,49)      -6.5185199                     1_GWF-(1,2,49)
          3          1          3      -1.4723416                    1_GWF-(1,24,47)       4.3291700                     1_GWF-(1,2,49)
          4          1          4      -1.2703819                    1_GWF-(1,25,45)       3.5142287                    1_GWF-(1,51,48)
          5          1          5      -1.1723277                    1_GWF-(1,26,43)       4.5492422                     1_GWF-(1,2,48)
          6          1          6      -1.1328229                    1_GWF-(1,26,41)      -4.6677316                     1_GWF-(1,2,48)
          7          1          7      -1.1570237                    1_GWF-(1,26,39)       4.0835387                     1_GWF-(1,2,48)
          8          1          8      -1.2835411                    1_GWF-(1,26,36)      -3.3615599                     1_GWF-(1,2,49)
          9          1          9      -1.5052122                    1_GWF-(1,26,33)       2.2471304                     1_GWF-(1,2,48)
         10          1         10      -1.1674085                    1_GWF-(1,23,32)      -1.6596915                     1_GWF-(1,2,48)
         11          1         11     -0.92812823                    1_GWF-(1,21,30)      -1.7139770                    1_GWF-(1,50,50)
         12          1         12     -0.72645267                    1_GWF-(1,18,29)       1.3843824                    1_GWF-(1,50,50)
         13          1         13     -0.54798448                    1_GWF-(1,37,27)      0.98191221                    1_GWF-(1,50,49)
         14          1         14     -0.46578972                    1_GWF-(1,40,25)     -0.88903476                    1_GWF-(1,50,46)
         15          1         15     -0.38746956                    1_GWF-(1,22,31)     -0.81212422                    1_GWF-(1,49,50)
         16          1         16     -0.31516666                    1_GWF-(1,20,29)      0.66644354                    1_GWF-(1,50,45)
         17          1         17     -0.26589425                    1_GWF-(1,47,18)      0.59498577                    1_GWF-(1,49,49)
         18          1         18     -0.22077808                    1_GWF-(1,48,16)      0.53450738                     1_GWF-(1,2,45)
         19          1         19     -0.24804293                    1_GWF-(1,22,31)     -0.51671451                     1_GWF-(1,2,45)
         20          1         20     -0.23421490                    1_GWF-(1,20,29)      0.42608228                     1_GWF-(1,2,45)
         21          1         21      0.18173829                    1_GWF-(1,21,30)     -0.36235056                     1_GWF-(1,2,45)
         22          1         22     -0.16574470                    1_GWF-(1,22,31)     -0.23298908                    1_GWF-(1,48,50)
         23          1         23 -8.59442390E-02                    1_GWF-(1,21,30)      0.11827013                    1_GWF-(1,48,50)
         24          1         24  7.37739582E-02                    1_GWF-(1,21,30)      0.10611641                    1_GWF-(1,48,49)
         25          1         25     -0.10499551                    1_GWF-(1,22,31) -8.29203913E-02                    1_GWF-(1,50,42)
         26          1         26 -3.44205127E-02                    1_GWF-(1,21,30)  5.19202171E-02                    1_GWF-(1,48,50)
         27          1         27  2.65333586E-02                    1_GWF-(1,21,30)  2.81139717E-02                    1_GWF-(1,49,43)
         28          1         28 -3.07585988E-02                    1_GWF-(1,22,31) -2.24384741E-02                    1_GWF-(1,50,50)
         29          1         29 -7.53041029E-03                    1_GWF-(1,26,19) -1.27614148E-02                    1_GWF-(1,47,50)
         30          1         30  6.41094823E-03                    1_GWF-(1,21,30)  7.10796449E-03                    1_GWF-(1,47,50)
         31          1         31 -6.78098831E-03                    1_GWF-(1,22,31) -5.45536320E-03                    1_GWF-(1,47,47)
         32          1         32  4.88537051E-03                    1_GWF-(1,22,31) -5.13452230E-03                    1_GWF-(1,48,44)
         33          1         33  3.74701614E-03                    1_GWF-(1,21,30) -8.82551298E-03                    1_GWF-(1,46,50)
         34          1         34 -5.42875216E-03                    1_GWF-(1,21,30)  5.82315393E-03                    1_GWF-(1,47,45)
         35          1         35  6.24554799E-03                    1_GWF-(1,22,31)  6.83480570E-03                    1_GWF-(1,46,49)
         36          1         36 -3.60458531E-03                    1_GWF-(1,22,31) -3.89910700E-03                    1_GWF-(1,46,50)
         37          1         37 -3.37912177E-03                    1_GWF-(1,21,30)  3.50785633E-03                    1_GWF-(1,46,50)
         38          1         38  2.46199107E-03                    1_GWF-(1,22,31) -2.94530212E-03                    1_GWF-(1,46,47)
         39          1         39 -4.03882365E-03                    1_GWF-(1,22,31) -2.86927522E-03                    1_GWF-(1,49,49)
         40          1         40 -2.21342831E-03                    1_GWF-(1,21,30) -2.03265616E-03                    1_GWF-(1,45,50)
         41          1         41  1.20770688E-03                    1_GWF-(1,21,30)  1.31222668E-03                    1_GWF-(1,45,50)
         42          1         42 -1.54604404E-03                    1_GWF-(1,22,31) -1.23453266E-03                    1_GWF-(1,46,45)
         43          1         43  1.03665980E-03                    1_GWF-(1,22,31)  1.03980205E-03                    1_GWF-(1,44,50)
         44          1         44  3.93513110E-04                    1_GWF-(1,34,28) -8.41312018E-04                    1_GWF-(1,44,50)
         45          1         45 -6.70166038E-04                    1_GWF-(1,22,31) -5.56267385E-04                    1_GWF-(1,44,49)
         46          1         46  5.24432200E-04                    1_GWF-(1,22,31)  3.83756020E-04                    1_GWF-(1,44,49)
         47          1         47 -2.67159307E-04                    1_GWF-(1,22,31)  3.37452220E-04                    1_GWF-(1,44,48)
         48          1         48 -2.41337398E-04                    1_GWF-(1,21,30)  2.91531332E-04                    1_GWF-(1,44,50)
         49          1         49  2.94263885E-04                    1_GWF-(1,22,31) -1.68809860E-04                    1_GWF-(1,44,47)
         50          1         50 -1.42382805E-04                    1_GWF-(1,22,31) -1.01065505E-04                    1_GWF-(1,44,46)
         51          1         51 -7.84911483E-05                    1_GWF-(1,21,30) -8.38886609E-05                    1_GWF-(1,43,50)
         52          1         52  6.83479674E-05                    1_GWF-(1,22,31) -4.07048727E-05                    1_GWF-(1,43,49)
         53          1         53 -3.02866175E-05                    1_GWF-(1,22,31)  2.38240379E-05                    1_GWF-(1,43,49)
         54          1         54  1.70578143E-05                    1_GWF-(1,20,22)  1.71350573E-05                    1_GWF-(1,50,50)
         55          1         55 -1.12083511E-05                    1_GWF-(1,22,20)  1.10857157E-05                    1_GWF-(1,50,49)
         56          1         56 -1.20513114E-05                    1_GWF-(1,22,31) -9.79868440E-06                    1_GWF-(1,42,49)
         57          1         57  1.00242330E-05                    1_GWF-(1,22,31) -5.33473843E-06                    1_GWF-(1,43,46)
         58          1         58  4.31356790E-06                    1_GWF-(1,22,20) -3.01230786E-06                    1_GWF-(1,42,50)
         59          1         59 -2.89940175E-06                    1_GWF-(1,22,31) -1.82641229E-06                    1_GWF-(1,50,49)
         60          1         60  1.18170329E-06                    1_GWF-(1,22,31) -1.00090111E-06                    1_GWF-(1,49,50)
         61          1         61 -4.15172506E-07                    1_GWF-(1,22,20)  8.07923184E-07                    1_GWF-(1,41,50)
         62          1         62 -4.81553507E-07                    1_GWF-(1,22,31)  3.80287870E-07                     1_GWF-(1,2,35)
         63          1         63  6.31142053E-07                    1_GWF-(1,22,31) -3.39248027E-07                    1_GWF-(1,41,49)
         64          1         64  2.18007435E-07                    1_GWF-(1,21,30)  1.73681550E-07                    1_GWF-(1,51,46)
         65          1         65  7.02125005E-08                    1_GWF-(1,18,31) -1.25633021E-07                     1_GWF-(1,2,35)
         66          1         66  9.53571184E-08                    1_GWF-(1,22,31)  8.72711256E-08                    1_GWF-(1,41,47)
         67          1         67 -1.02647063E-07                    1_GWF-(1,22,31) -4.91341377E-08                     1_GWF-(1,3,31)
         68          1         68 -3.91985967E-08                    1_GWF-(1,21,30) -3.56206998E-08                     1_GWF-(1,2,32)
         69          1         69  1.56246394E-08                    1_GWF-(1,22,31) -1.98108088E-08                    1_GWF-(1,41,45)
         70          1         70 -1.45853536E-08                    1_GWF-(1,22,31) -1.11938450E-08                    1_GWF-(1,40,49)
         71          1         71  3.03428691E-09                    1_GWF-(1,28,19) -5.15540512E-09                    1_GWF-(1,41,43)
         72          1         72  1.85851564E-09                    1_GWF-(1,22,31) -3.03954768E-09                     1_GWF-(1,2,30)
         73          1         73  5.62346923E-10                     1_GWF-(1,1,30) -2.83598644E-09                     1_GWF-(1,2,30)
         74          2          1      0.35858354                    1_GWF-(1,37,23)     -0.20132899                    1_GWF-(1,51,50)
         75          2          2      0.33887465                    1_GWF-(1,15,22)     -0.25136191                     1_GWF-(1,2,49)
         76          2          3      0.17515465                    1_GWF-(1,41,21)      0.20080088                     1_GWF-(1,2,49)
         77          2          4      0.17136729                    1_GWF-(1,43,21)      0.21090359                    1_GWF-(1,51,48)
         78          2          5      0.18612029                    1_GWF-(1,46,21)      0.26905880                     1_GWF-(1,2,48)
         79          2          6      0.22746798                    1_GWF-(1,22,44)     -0.26287738                     1_GWF-(1,2,48)
         80          2          7      0.13312800                    1_GWF-(1,18,42)      0.18341767                     1_GWF-(1,2,48)
         81          2          8      0.13095324                    1_GWF-(1,15,40)     -0.14052090                     1_GWF-(1,2,48)
         82          2          9  9.82819536E-02                    1_GWF-(1,14,38) -9.29852565E-02                     1_GWF-(1,3,47)
         83          2         10  8.86134664E-02                    1_GWF-(1,13,36) -7.43098630E-02                     1_GWF-(1,2,48)
         84          2         11  6.21122608E-02                    1_GWF-(1,12,34) -6.85575742E-02                    1_GWF-(1,50,50)
         85          2         12 -7.35592147E-02                    1_GWF-(1,18,42)  6.41368659E-02                    1_GWF-(1,50,50)
         86          2         13  4.75733535E-02                    1_GWF-(1,14,38)  3.33869662E-02                    1_GWF-(1,50,49)
         87          2         14  4.18164329E-02                    1_GWF-(1,18,42) -2.55214884E-02                    1_GWF-(1,50,49)
         88          2         15 -4.11851637E-02                    1_GWF-(1,18,42)  2.41472033E-02                    1_GWF-(1,50,50)
         89          2         16  4.37786387E-02                    1_GWF-(1,14,38) -2.61930343E-02                    1_GWF-(1,50,50)
         90          2         17  3.04938708E-02                    1_GWF-(1,13,36)  1.68256814E-02                    1_GWF-(1,50,47)
         91          2         18 -2.58838284E-02                    1_GWF-(1,18,42)  9.17965877E-03                    1_GWF-(1,50,46)
         92          2         19  1.58184323E-02                    1_GWF-(1,18,42)  4.89017359E-03                    1_GWF-(1,49,50)
         93          2         20 -5.35110236E-03                    1_GWF-(1,15,22) -2.74296287E-03                    1_GWF-(1,49,47)
         94          2         21 -3.45979269E-03                    1_GWF-(1,18,42)  1.76989701E-03                    1_GWF-(1,51,49)
         95          2         22  3.98275829E-03                    1_GWF-(1,18,42) -1.65339698E-03                    1_GWF-(1,48,50)
         96          2         23 -2.58264939E-03                    1_GWF-(1,18,42)  1.23480515E-03                    1_GWF-(1,50,43)
         97          2         24 -1.10783195E-03                    1_GWF-(1,41,29)  1.44590053E-03                    1_GWF-(1,49,47)
         98          2         25  1.95889451E-03                    1_GWF-(1,18,42) -1.74380670E-03                    1_GWF-(1,48,50)
         99          2         26 -4.05016935E-03                    1_GWF-(1,18,42)  1.87287559E-03                    1_GWF-(1,48,50)
        100          2         27  2.99636080E-03                    1_GWF-(1,18,42)  1.12885913E-03                    1_GWF-(1,48,49)
        101          2         28  1.16919408E-03                    1_GWF-(1,14,24)  7.73613611E-04                    1_GWF-(1,44,12)
        102          2         29 -1.00186078E-03                    1_GWF-(1,18,42) -7.21185435E-04                    1_GWF-(1,47,50)
        103          2         30  1.41498518E-03                    1_GWF-(1,18,42) -4.22734222E-04                    1_GWF-(1,47,49)
        104          2         31 -3.87613462E-04                    1_GWF-(1,40,30)  5.80222171E-04                    1_GWF-(1,47,49)
        105          2         32 -5.09912417E-04                    1_GWF-(1,18,42)  4.06521064E-04                    1_GWF-(1,48,11)
        106          2         33  5.78914390E-04                    1_GWF-(1,18,42)  2.47187328E-04                    1_GWF-(1,49,10)
        107          2         34 -2.67192199E-04                    1_GWF-(1,18,42) -1.54146552E-04                    1_GWF-(1,47,47)
        108          2         35 -1.25170383E-04                    1_GWF-(1,18,42) -7.34336026E-05                    1_GWF-(1,47,10)
        109          2         36  1.53351427E-04                    1_GWF-(1,18,42) -1.14347233E-04                    1_GWF-(1,46,50)
        110          2         37 -2.31929122E-04                    1_GWF-(1,18,42)  8.67943336E-05                    1_GWF-(1,46,50)
        111          2         38 -9.24067482E-05                    1_GWF-(1,12,38)  7.69988072E-05                    1_GWF-(1,46,49)
        112          2         39  5.86529909E-05                    1_GWF-(1,18,42)  4.18038977E-05                     1_GWF-(1,3,40)
        113          2         40 -6.55501411E-05                    1_GWF-(1,18,42) -3.38787722E-05                    1_GWF-(1,45,50)
        114          2         41  4.41174666E-05                    1_GWF-(1,18,42) -2.01203308E-05                    1_GWF-(1,45,49)
        115          2         42 -1.21260231E-05                    1_GWF-(1,13,36)  1.39746104E-05                    1_GWF-(1,45,49)
        116          2         43  9.49110500E-06                    1_GWF-(1,17,42) -9.50023978E-06                    1_GWF-(1,45,50)
        117          2         44  1.22406412E-05                    1_GWF-(1,18,42)  6.68068492E-06                    1_GWF-(1,45,50)
        118          2         45 -4.88726486E-06                    1_GWF-(1,18,42)  4.32526754E-06                    1_GWF-(1,45,49)
        119          2         46 -3.80756582E-06                    1_GWF-(1,27,18)  3.16122232E-06                    1_GWF-(1,44,50)
        120          2         47 -2.46973408E-06                    1_GWF-(1,30,18) -2.25904251E-06                    1_GWF-(1,44,50)
        121          2         48 -2.12571085E-06                    1_GWF-(1,18,42) -1.40775583E-06                     1_GWF-(1,2,39)
        122          2         49  9.76780536E-07                    1_GWF-(1,40,33)  9.75882525E-07                    1_GWF-(1,44,49)
        123          2         50  4.60048897E-07                    1_GWF-(1,23,18)  6.56788136E-07                     1_GWF-(1,7,49)
        124          2         51  3.00538354E-07                    1_GWF-(1,10,35)  2.88972099E-07                     1_GWF-(1,2,38)
        125          2         52  2.04511341E-07                    1_GWF-(1,12,34) -1.46016822E-07                    1_GWF-(1,43,49)
        126          2         53  1.94946640E-07                    1_GWF-(1,19,43) -7.93858329E-08                     1_GWF-(1,50,9)
        127          2         54  7.51191261E-08                    1_GWF-(1,14,38) -7.12559720E-08                    1_GWF-(1,43,50)
        128          2         55 -3.78465890E-08                    1_GWF-(1,28,18) -3.49178282E-08                    1_GWF-(1,48,49)
        129          2         56 -3.12875616E-08                    1_GWF-(1,30,18) -2.01874249E-08                    1_GWF-(1,47,49)
        130          2         57 -1.75051409E-08                    1_GWF-(1,29,18) -1.41732358E-08                     1_GWF-(1,7,47)
        131          2         58 -1.08280984E-08                    1_GWF-(1,12,32) -6.63338228E-09                    1_GWF-(1,48,49)
        132          2         59 -3.25314859E-09                    1_GWF-(1,34,20) -2.79724042E-09                    1_GWF-(1,42,50)
        133          2         60 -1.18444067E-09                    1_GWF-(1,34,20) -1.92155851E-09                     1_GWF-(1,2,46)
        134          2         61 -6.58132652E-10                    1_GWF-(1,34,20) -1.63023169E-09                     1_GWF-(1,2,46)
        135          3          1      0.12030048                    1_GWF-(1,12,34) -8.64981276E-02                    1_GWF-(1,15,22)
        136          3          2      0.14834467                    1_GWF-(1,40,36)  6.84706555E-02                    1_GWF-(1,41,32)
        137          3          3 -7.47402162E-02                    1_GWF-(1,15,23)  6.59591861E-02                    1_GWF-(1,14,24)
        138          3          4 -6.98349266E-02                    1_GWF-(1,14,24) -6.58835707E-02                    1_GWF-(1,14,24)
        139          3          5 -4.74769627E-02                    1_GWF-(1,15,23) -5.16029366E-02                    1_GWF-(1,38,21)
        140          3          6  3.09368436E-02                     1_GWF-(1,1,39)  2.76164277E-02                    1_GWF-(1,42,31)
        141          3          7  2.05977421E-02                     1_GWF-(1,1,41) -1.94391059E-02                    1_GWF-(1,10,28)
        142          3          8  1.33513492E-02                     1_GWF-(1,1,45) -1.35889410E-02                    1_GWF-(1,40,24)
        143          3          9  7.81546493E-03                    1_GWF-(1,12,27)  1.02289583E-02                     1_GWF-(1,9,29)
        144          3         10  6.23963694E-03                    1_GWF-(1,13,26)  8.23824878E-03                    1_GWF-(1,39,20)
        145          3         11 -5.95268015E-03                     1_GWF-(1,1,47) -5.88120893E-03                     1_GWF-(1,8,30)
        146          3         12  4.38705032E-03                    1_GWF-(1,13,26) -4.16365605E-03                    1_GWF-(1,40,19)
        147          3         13  3.58431039E-03                    1_GWF-(1,12,27) -2.69566503E-03                    1_GWF-(1,41,18)
        148          3         14 -2.11712633E-03                    1_GWF-(1,18,20) -1.94161755E-03                    1_GWF-(1,40,17)
        149          3         15 -1.63010250E-03                    1_GWF-(1,19,19) -1.98629554E-03                     1_GWF-(1,3,42)
        150          3         16 -2.21598720E-03                    1_GWF-(1,18,20) -2.16649468E-03                    1_GWF-(1,18,20)
        151          3         17  2.09226674E-03                    1_GWF-(1,18,20)  2.07081130E-03                    1_GWF-(1,18,20)
        152          3         18 -1.74856858E-03                    1_GWF-(1,18,43) -1.84050739E-03                    1_GWF-(1,41,16)
        153          3         19  2.35798885E-03                    1_GWF-(1,14,24) -1.78213567E-03                    1_GWF-(1,46,20)
        154          3         20  1.99363737E-03                    1_GWF-(1,15,23) -1.89021230E-03                    1_GWF-(1,44,22)
        155          3         21  1.66719688E-03                    1_GWF-(1,18,43) -1.25032964E-03                     1_GWF-(1,6,43)
        156          3         22  1.40262398E-03                    1_GWF-(1,40,36)  1.23673188E-03                     1_GWF-(1,6,42)
        157          3         23  9.54013662E-04                    1_GWF-(1,39,38)  1.00168271E-03                    1_GWF-(1,46,20)
        158          3         24  7.41463248E-04                    1_GWF-(1,16,41)  8.49193406E-04                     1_GWF-(1,5,40)
        159          3         25  5.00246067E-04                    1_GWF-(1,22,15)  5.56383970E-04                    1_GWF-(1,47,22)
        160          3         26 -3.80937151E-04                    1_GWF-(1,27,46) -3.45723792E-04                    1_GWF-(1,45,19)
        161          3         27 -2.88852686E-04                    1_GWF-(1,17,42)  2.31514993E-04                    1_GWF-(1,44,13)
        162          3         28 -1.70638571E-04                    1_GWF-(1,14,39)  1.40643621E-04                    1_GWF-(1,46,18)
        163          3         29  1.41531870E-04                    1_GWF-(1,26,46)  9.35400291E-05                    1_GWF-(1,48,23)
        164          3         30  7.11098530E-05                    1_GWF-(1,26,46)  8.14222154E-05                    1_GWF-(1,50,17)
        165          3         31 -3.97986700E-05                     1_GWF-(1,8,42)  7.27183036E-05                    1_GWF-(1,50,13)
        166          3         32 -6.97630229E-05                    1_GWF-(1,26,46)  6.63142106E-05                    1_GWF-(1,51,12)
        167          3         33  7.39669434E-05                    1_GWF-(1,39,38) -7.00220584E-05                    1_GWF-(1,49,27)
        168          3         34 -3.90895370E-05                    1_GWF-(1,14,38)  3.79718800E-05                    1_GWF-(1,46,11)
        169          3         35  1.79360019E-05                    1_GWF-(1,22,45)  2.94561897E-05                    1_GWF-(1,50,17)
        170          3         36  1.80022220E-05                    1_GWF-(1,30,45) -2.27848327E-05                    1_GWF-(1,50,17)
        171          3         37  1.40675151E-05                    1_GWF-(1,32,45) -2.12508077E-05                    1_GWF-(1,50,13)
        172          3         38  1.58912645E-05                    1_GWF-(1,20,44)  1.89629732E-05                    1_GWF-(1,50,19)
        173          3         39 -1.71195071E-05                    1_GWF-(1,32,44)  2.28443542E-05                    1_GWF-(1,49,17)
        174          3         40 -2.02773553E-05                    1_GWF-(1,39,37)  1.84942574E-05                    1_GWF-(1,49,19)
        175          3         41  1.81484144E-05                     1_GWF-(1,1,36)  2.43065151E-05                    1_GWF-(1,49,15)
        176          3         42  1.72166955E-05                     1_GWF-(1,2,35)  1.32534595E-05                    1_GWF-(1,51,10)
        177          3         43  8.07993816E-06                    1_GWF-(1,11,30)  1.09155586E-05                    1_GWF-(1,50,11)
        178          3         44  4.99669329E-06                    1_GWF-(1,30,45) -5.74290338E-06                    1_GWF-(1,50,11)
        179          3         45  2.23787620E-06                    1_GWF-(1,12,33) -2.69455180E-06                    1_GWF-(1,49,12)
        180          3         46 -2.09065880E-06                    1_GWF-(1,30,45) -2.29860114E-06                     1_GWF-(1,49,8)
        181          3         47 -1.32425931E-06                    1_GWF-(1,41,29) -1.64434121E-06                    1_GWF-(1,48,20)
        182          3         48 -9.14391940E-07                    1_GWF-(1,40,29)  9.61724818E-07                     1_GWF-(1,2,35)
        183          3         49 -5.87591371E-07                    1_GWF-(1,16,41) -6.60935691E-07                    1_GWF-(1,51,13)
        184          3         50  3.44499799E-07                    1_GWF-(1,27,18) -6.29538007E-07                     1_GWF-(1,51,6)
        185          3         51  1.96001172E-07                    1_GWF-(1,26,17) -2.91254184E-07                    1_GWF-(1,48,13)
        186          3         52  1.45403221E-07                    1_GWF-(1,25,18)  1.45036307E-07                    1_GWF-(1,50,10)
        187          3         53  5.95218007E-08                    1_GWF-(1,24,17) -6.70401851E-08                     1_GWF-(1,48,4)
        188          3         54  3.08334827E-08                    1_GWF-(1,40,37)  4.36891128E-08                    1_GWF-(1,48,14)
        189          3         55  2.19194105E-08                    1_GWF-(1,39,36) -2.20887766E-08                    1_GWF-(1,49,10)
        190          3         56 -1.47685905E-08                    1_GWF-(1,34,43)  1.12630102E-08                    1_GWF-(1,47,14)
        191          3         57 -5.52531119E-09                    1_GWF-(1,29,45)  5.74956483E-09                    1_GWF-(1,46,15)
        192          3         58  1.92736123E-09                    1_GWF-(1,40,31)  2.95078800E-09                    1_GWF-(1,47,19)
        193          3         59 -9.47201951E-10                    1_GWF-(1,24,17)  2.10034159E-09                      1_GWF-(1,2,5)
        194          4          1 -4.51920361E-02                    1_GWF-(1,12,31)  3.72396897E-02                    1_GWF-(1,38,39)
        195          4          2  2.76198248E-02                    1_GWF-(1,37,41)  2.03104376E-02                    1_GWF-(1,39,38)
        196          4          3 -1.26398952E-02                    1_GWF-(1,43,29) -1.80679177E-02                    1_GWF-(1,39,38)
        197          4          4  9.12877920E-03                    1_GWF-(1,39,38) -1.62457445E-02                    1_GWF-(1,40,37)
        198          4          5 -9.34955344E-03                    1_GWF-(1,49,29)  1.53419628E-02                    1_GWF-(1,40,37)
        199          4          6 -1.05846467E-02                    1_GWF-(1,51,28)  1.39315164E-02                    1_GWF-(1,41,36)
        200          4          7 -9.13042125E-03                    1_GWF-(1,37,41)  1.05644331E-02                    1_GWF-(1,40,36)
        201          4          8 -1.06694120E-02                    1_GWF-(1,40,31) -1.36317586E-02                    1_GWF-(1,40,36)
        202          4          9 -1.11712823E-02                    1_GWF-(1,39,38)  9.87624909E-03                    1_GWF-(1,41,36)
        203          4         10 -1.00489147E-02                    1_GWF-(1,41,36)  1.11385765E-02                    1_GWF-(1,42,35)
        204          4         11 -9.19896559E-03                    1_GWF-(1,39,37) -6.61811016E-03                    1_GWF-(1,42,35)
        205          4         12 -6.16199500E-03                    1_GWF-(1,18,20) -5.61634245E-03                    1_GWF-(1,43,34)
        206          4         13 -5.02875653E-03                    1_GWF-(1,14,24)  3.00013252E-03                    1_GWF-(1,43,33)
        207          4         14 -2.68161457E-03                    1_GWF-(1,18,20) -2.84177113E-03                    1_GWF-(1,42,35)
        208          4         15  1.64190948E-03                    1_GWF-(1,37,41) -2.27008931E-03                    1_GWF-(1,43,34)
        209          4         16  1.58911668E-03                    1_GWF-(1,14,24)  1.88293744E-03                    1_GWF-(1,40,36)
        210          4         17 -1.06021357E-03                    1_GWF-(1,21,18) -1.17587735E-03                     1_GWF-(1,9,41)
        211          4         18 -8.72697543E-04                    1_GWF-(1,23,17) -9.25872345E-04                    1_GWF-(1,44,32)
        212          4         19 -1.13009128E-03                    1_GWF-(1,14,24) -7.88847185E-04                    1_GWF-(1,45,31)
        213          4         20 -6.58587516E-04                    1_GWF-(1,17,21) -4.43412676E-04                     1_GWF-(1,9,41)
        214          4         21 -6.12257544E-04                    1_GWF-(1,18,20)  3.53878630E-04                    1_GWF-(1,45,32)
        215          4         22 -3.99688290E-04                    1_GWF-(1,19,19)  3.92476408E-04                     1_GWF-(1,8,42)
        216          4         23 -3.77030922E-04                    1_GWF-(1,14,24)  3.18644597E-04                    1_GWF-(1,45,31)
        217          4         24  2.82296480E-04                    1_GWF-(1,39,38) -2.68987489E-04                     1_GWF-(1,7,43)
        218          4         25  1.85490037E-04                    1_GWF-(1,40,36) -2.04742372E-04                    1_GWF-(1,45,32)
        219          4         26  1.41409223E-04                    1_GWF-(1,36,42) -1.37079812E-04                    1_GWF-(1,40,36)
        220          4         27  9.29323386E-05                    1_GWF-(1,34,43) -1.09012084E-04                    1_GWF-(1,47,30)
        221          4         28  5.65236030E-05                    1_GWF-(1,18,20)  6.79981009E-05                    1_GWF-(1,47,30)
        222          4         29  3.99807977E-05                    1_GWF-(1,20,19)  6.44074284E-05                    1_GWF-(1,49,29)
        223          4         30 -3.64820586E-05                    1_GWF-(1,19,45) -6.63533995E-05                    1_GWF-(1,49,29)
        224          4         31  6.90217492E-05                    1_GWF-(1,39,36)  8.27608514E-05                    1_GWF-(1,47,30)
        225          4         32  6.53084126E-05                    1_GWF-(1,39,37) -1.28096479E-04                    1_GWF-(1,47,30)
        226          4         33 -7.43852616E-05                     1_GWF-(1,1,36) -7.88769048E-05                    1_GWF-(1,48,29)
        227          4         34 -4.86031817E-05                    1_GWF-(1,12,35)  5.27704111E-05                    1_GWF-(1,49,26)
        228          4         35 -2.84676735E-05                    1_GWF-(1,16,41)  3.73937586E-05                    1_GWF-(1,49,28)
        229          4         36 -1.46315657E-05                    1_GWF-(1,11,33)  2.12144272E-05                     1_GWF-(1,2,47)
        230          4         37 -1.11618322E-05                    1_GWF-(1,18,44) -1.14733816E-05                    1_GWF-(1,50,26)
        231          4         38 -9.15383268E-06                    1_GWF-(1,20,44) -8.18056768E-06                    1_GWF-(1,50,24)
        232          4         39 -4.24815748E-06                    1_GWF-(1,13,26) -7.54715237E-06                    1_GWF-(1,50,26)
        233          4         40 -2.57421144E-06                    1_GWF-(1,12,27)  3.74402758E-06                    1_GWF-(1,50,26)
        234          4         41 -1.69729853E-06                    1_GWF-(1,16,41) -2.76744406E-06                    1_GWF-(1,51,26)
        235          4         42 -1.83164385E-06                    1_GWF-(1,12,32)  2.47936062E-06                     1_GWF-(1,4,44)
        236          4         43  1.10222657E-06                    1_GWF-(1,17,42)  2.17477019E-06                    1_GWF-(1,50,26)
        237          4         44 -9.08721002E-07                    1_GWF-(1,30,45) -1.22448448E-06                    1_GWF-(1,50,26)
        238          4         45  1.05608864E-06                    1_GWF-(1,39,36) -1.15379116E-06                    1_GWF-(1,50,27)
        239          4         46  8.46254048E-07                    1_GWF-(1,39,37) -1.07876205E-06                    1_GWF-(1,51,26)
        240          4         47  6.15916954E-07                    1_GWF-(1,39,37)  7.41135644E-07                    1_GWF-(1,48,28)
        241          4         48  3.77988151E-07                    1_GWF-(1,26,46)  3.26214310E-07                     1_GWF-(1,3,47)
        242          4         49 -1.90020086E-07                    1_GWF-(1,10,45) -2.67133336E-07                     1_GWF-(1,5,43)
        243          4         50 -1.89421262E-07                    1_GWF-(1,18,44)  1.75171161E-07                     1_GWF-(1,5,43)
        244          4         51 -1.77747933E-07                    1_GWF-(1,16,41)  1.31543134E-07                     1_GWF-(1,6,42)
        245          4         52 -9.46560881E-08                    1_GWF-(1,14,39)  7.17922041E-08                     1_GWF-(1,3,48)
        246          4         53  5.08553551E-08                    1_GWF-(1,39,36) -5.02986318E-08                    1_GWF-(1,49,28)
        247          4         54  4.55562086E-08                    1_GWF-(1,38,39)  3.57017182E-08                    1_GWF-(1,49,28)
        248          4         55  2.49222446E-08                    1_GWF-(1,24,45) -2.53937244E-08                     1_GWF-(1,6,42)
        249          4         56  1.33607191E-08                    1_GWF-(1,15,40)  8.47660973E-09                    1_GWF-(1,47,30)
        250          4         57  4.16895670E-09                    1_GWF-(1,18,43) -3.39869607E-09                     1_GWF-(1,2,22)
        251          4         58  1.51494537E-09                    1_GWF-(1,18,43) -2.58025975E-09                     1_GWF-(1,2,21)
        252          4         59  8.01457167E-10                    1_GWF-(1,16,44) -2.01576417E-09                     1_GWF-(1,2,21)
        253          5          1 -1.81136806E-02                    1_GWF-(1,14,39)  6.35528654E-03                    1_GWF-(1,40,36)
        254          5          2 -8.52843166E-03                    1_GWF-(1,40,36) -6.62076882E-03                    1_GWF-(1,40,36)
        255          5          3 -5.22820025E-03                    1_GWF-(1,10,41) -4.85600141E-03                    1_GWF-(1,41,35)
        256          5          4 -4.21404339E-03                    1_GWF-(1,36,41)  5.58337636E-03                    1_GWF-(1,41,35)
        257          5          5 -2.70419804E-03                    1_GWF-(1,15,40) -2.86571365E-03                    1_GWF-(1,41,35)
        258          5          6 -1.89074556E-03                     1_GWF-(1,2,43) -1.87528864E-03                    1_GWF-(1,42,34)
        259          5          7  1.39118193E-03                    1_GWF-(1,18,20)  1.17864766E-03                    1_GWF-(1,42,33)
        260          5          8 -1.39914066E-03                    1_GWF-(1,18,20) -1.10657478E-03                    1_GWF-(1,18,20)
        261          5          9  1.20336884E-03                    1_GWF-(1,18,20)  8.35685225E-04                    1_GWF-(1,18,20)
        262          5         10 -7.13434197E-04                    1_GWF-(1,18,20) -5.06480029E-04                    1_GWF-(1,18,20)
        263          5         11  5.57533765E-04                    1_GWF-(1,18,20) -4.00299218E-04                    1_GWF-(1,14,24)
        264          5         12  3.40591665E-04                    1_GWF-(1,14,24)  2.45357282E-04                    1_GWF-(1,14,24)
        265          5         13  2.24132057E-04                    1_GWF-(1,15,23)  2.06194346E-04                     1_GWF-(1,4,50)
        266          5         14 -1.57251323E-04                    1_GWF-(1,16,41) -1.22475753E-04                    1_GWF-(1,39,38)
        267          5         15  1.03175540E-04                    1_GWF-(1,19,19) -1.32515836E-04                     1_GWF-(1,3,50)
        268          5         16  9.28217432E-05                    1_GWF-(1,21,18)  7.42273362E-05                     1_GWF-(1,4,50)
        269          5         17  6.62218997E-05                    1_GWF-(1,20,19)  5.95071979E-05                     1_GWF-(1,2,50)
        270          5         18  5.12344834E-05                    1_GWF-(1,19,44) -3.94213176E-05                     1_GWF-(1,3,50)
        271          5         19  2.56765226E-05                    1_GWF-(1,19,19)  2.78091536E-05                     1_GWF-(1,7,49)
        272          5         20  2.36283472E-05                    1_GWF-(1,18,20)  2.14473482E-05                     1_GWF-(1,4,49)
        273          5         21 -1.77151031E-05                    1_GWF-(1,14,24) -1.28110682E-05                     1_GWF-(1,5,49)
        274          5         22 -1.46788381E-05                    1_GWF-(1,36,21)  1.92732851E-05                     1_GWF-(1,6,49)
        275          5         23 -1.83459140E-05                    1_GWF-(1,35,21)  1.71757017E-05                     1_GWF-(1,4,49)
        276          5         24 -2.66440811E-05                    1_GWF-(1,16,41)  2.04942709E-05                    1_GWF-(1,47,22)
        277          5         25 -2.22838159E-05                    1_GWF-(1,16,41) -1.79241549E-05                     1_GWF-(1,8,47)
        278          5         26 -2.04373421E-05                    1_GWF-(1,43,26) -1.72617140E-05                     1_GWF-(1,7,43)
        279          5         27 -1.25011802E-05                    1_GWF-(1,38,38)  1.01292344E-05                     1_GWF-(1,7,43)
        280          5         28 -7.38388050E-06                    1_GWF-(1,24,45) -7.50623402E-06                     1_GWF-(1,6,41)
        281          5         29 -7.13459349E-06                    1_GWF-(1,26,47) -7.20953511E-06                     1_GWF-(1,8,48)
        282          5         30  5.17638551E-06                    1_GWF-(1,35,43) -6.10852397E-06                     1_GWF-(1,6,48)
        283          5         31  4.60339708E-06                    1_GWF-(1,18,43)  4.88024781E-06                    1_GWF-(1,10,47)
        284          5         32 -4.72238117E-06                    1_GWF-(1,38,38) -4.41219163E-06                    1_GWF-(1,10,47)
        285          5         33 -5.15081580E-06                    1_GWF-(1,37,41)  4.38460690E-06                     1_GWF-(1,9,46)
        286          5         34 -3.98966458E-06                    1_GWF-(1,39,37)  2.32400687E-06                     1_GWF-(1,8,47)
        287          5         35 -2.25305744E-06                    1_GWF-(1,38,38)  1.46789894E-06                    1_GWF-(1,12,45)
        288          5         36 -1.32973220E-06                    1_GWF-(1,30,46) -9.48894329E-07                    1_GWF-(1,10,46)
        289          5         37 -5.29695729E-07                    1_GWF-(1,19,45)  5.83760353E-07                    1_GWF-(1,10,46)
        290          5         38 -5.38651801E-07                    1_GWF-(1,20,44)  3.47479063E-07                    1_GWF-(1,12,45)
        291          5         39 -3.92131206E-07                    1_GWF-(1,17,42) -2.48632047E-07                     1_GWF-(1,3,49)
        292          5         40  1.61102238E-07                    1_GWF-(1,26,46)  1.76939161E-07                     1_GWF-(1,3,36)
        293          5         41  1.92872365E-07                    1_GWF-(1,40,33) -1.51774160E-07                    1_GWF-(1,50,27)
        294          5         42  1.77126133E-07                    1_GWF-(1,36,41) -1.94012461E-07                     1_GWF-(1,9,44)
        295          5         43  2.09807383E-07                    1_GWF-(1,38,39) -1.77819352E-07                    1_GWF-(1,49,18)
        296          5         44 -2.00846630E-07                    1_GWF-(1,10,35) -1.57134058E-07                    1_GWF-(1,50,27)
        297          5         45 -1.99186684E-07                    1_GWF-(1,12,32) -1.16451778E-07                    1_GWF-(1,49,26)
        298          5         46 -2.12008589E-07                    1_GWF-(1,12,30)  1.27989437E-07                    1_GWF-(1,50,28)
        299          5         47 -1.69114871E-07                    1_GWF-(1,10,29) -1.21146170E-07                     1_GWF-(1,4,37)
        300          5         48  1.10312977E-07                    1_GWF-(1,40,30) -6.49458138E-08                    1_GWF-(1,49,16)
        301          5         49  5.72129658E-08                    1_GWF-(1,41,29) -4.90775803E-08                     1_GWF-(1,2,40)
        302          5         50 -3.71983672E-08                    1_GWF-(1,16,41)  3.73341374E-08                     1_GWF-(1,2,40)
        303          5         51 -1.92138178E-08                     1_GWF-(1,1,23) -1.92730538E-08                    1_GWF-(1,48,27)
        304          5         52  1.12588347E-08                    1_GWF-(1,15,23)  9.77602642E-09                    1_GWF-(1,10,46)
        305          5         53 -5.21632499E-09                    1_GWF-(1,24,17)  5.13658857E-09                     1_GWF-(1,8,48)
        306          5         54  2.49295318E-09                    1_GWF-(1,36,42) -2.64968971E-09                    1_GWF-(1,49,20)
        307          5         55  1.21562508E-09                    1_GWF-(1,36,42)  2.16601983E-09                     1_GWF-(1,2,15)
        308          5         56  8.58150944E-10                    1_GWF-(1,34,44) -1.99095020E-09                    1_GWF-(1,50,20)
        309          6          1 -4.50100962E-03                    1_GWF-(1,35,42)  2.75242403E-03                    1_GWF-(1,12,36)
        310          6          2  1.73859081E-03                    1_GWF-(1,41,34)  1.39600621E-03                    1_GWF-(1,39,37)
        311          6          3  1.13226537E-03                    1_GWF-(1,17,42)  1.16946472E-03                    1_GWF-(1,39,38)
        312          6          4  6.90731392E-04                    1_GWF-(1,46,31)  1.02429652E-03                    1_GWF-(1,40,37)
        313          6          5  8.64633268E-04                    1_GWF-(1,49,31) -1.04130852E-03                    1_GWF-(1,40,37)
        314          6          6  9.18806918E-04                    1_GWF-(1,51,30) -8.30222535E-04                    1_GWF-(1,41,36)
        315          6          7  8.65062756E-04                    1_GWF-(1,14,24)  7.61330747E-04                    1_GWF-(1,14,24)
        316          6          8  9.04564598E-04                    1_GWF-(1,40,32) -8.49253114E-04                    1_GWF-(1,14,24)
        317          6          9  9.14505673E-04                    1_GWF-(1,14,24) -7.65216330E-04                    1_GWF-(1,41,36)
        318          6         10  8.30883999E-04                    1_GWF-(1,41,36) -7.66072121E-04                    1_GWF-(1,42,35)
        319          6         11  7.33090516E-04                    1_GWF-(1,38,40)  4.48285915E-04                    1_GWF-(1,42,35)
        320          6         12  4.28411276E-04                    1_GWF-(1,39,38) -4.05907417E-04                    1_GWF-(1,38,40)
        321          6         13  3.06943028E-04                     1_GWF-(1,4,38)  3.13482215E-04                    1_GWF-(1,38,40)
        322          6         14 -2.85202250E-04                    1_GWF-(1,38,40)  2.17315239E-04                    1_GWF-(1,39,39)
        323          6         15 -2.25749027E-04                    1_GWF-(1,37,41)  1.87503903E-04                    1_GWF-(1,43,34)
        324          6         16  1.16813714E-04                    1_GWF-(1,20,18)  1.80473386E-04                     1_GWF-(1,7,43)
        325          6         17  1.24927815E-04                    1_GWF-(1,36,42)  1.75835629E-04                    1_GWF-(1,40,36)
        326          6         18  1.06094780E-04                    1_GWF-(1,25,18) -1.44322253E-04                     1_GWF-(1,9,41)
        327          6         19  1.05326149E-04                    1_GWF-(1,14,24)  7.87247182E-05                     1_GWF-(1,6,44)
        328          6         20 -1.00946328E-04                    1_GWF-(1,38,39)  8.77288897E-05                     1_GWF-(1,8,42)
        329          6         21 -4.43505343E-05                    1_GWF-(1,39,37) -3.81137298E-05                     1_GWF-(1,6,44)
        330          6         22 -2.50131192E-05                    1_GWF-(1,40,36)  3.38157456E-05                     1_GWF-(1,6,44)
        331          6         23  2.08897570E-05                    1_GWF-(1,14,24)  2.90365357E-05                    1_GWF-(1,40,36)
        332          6         24 -2.56319571E-05                    1_GWF-(1,14,38) -2.27384100E-05                     1_GWF-(1,7,44)
        333          6         25 -1.49312769E-05                    1_GWF-(1,39,36) -1.75355643E-05                     1_GWF-(1,4,46)
        334          6         26 -1.09608123E-05                    1_GWF-(1,17,42) -8.13722922E-06                     1_GWF-(1,6,42)
        335          6         27 -6.57220564E-06                    1_GWF-(1,17,21)  6.97984648E-06                    1_GWF-(1,49,29)
        336          6         28 -7.52012136E-06                    1_GWF-(1,18,20)  4.42548978E-06                    1_GWF-(1,50,30)
        337          6         29 -5.70922632E-06                    1_GWF-(1,19,19)  4.88615373E-06                    1_GWF-(1,47,30)
        338          6         30 -5.69005222E-06                    1_GWF-(1,18,20)  4.13946008E-06                    1_GWF-(1,49,29)
        339          6         31 -5.67410652E-06                    1_GWF-(1,39,36)  4.53472976E-06                     1_GWF-(1,4,45)
        340          6         32  5.45740094E-06                    1_GWF-(1,19,19)  8.19246235E-06                    1_GWF-(1,47,30)
        341          6         33  6.89800827E-06                    1_GWF-(1,18,20) -5.62377115E-06                     1_GWF-(1,4,46)
        342          6         34  4.48996055E-06                    1_GWF-(1,15,23)  4.08138113E-06                    1_GWF-(1,50,32)
        343          6         35  2.67322550E-06                    1_GWF-(1,18,20)  2.67472531E-06                     1_GWF-(1,5,48)
        344          6         36  1.37883100E-06                    1_GWF-(1,17,21) -1.70575661E-06                     1_GWF-(1,2,47)
        345          6         37  9.47277801E-07                    1_GWF-(1,18,44)  9.86025461E-07                    1_GWF-(1,50,29)
        346          6         38  6.19620499E-07                    1_GWF-(1,20,44)  6.82762208E-07                    1_GWF-(1,49,27)
        347          6         39  4.32197382E-07                    1_GWF-(1,11,28)  6.37066386E-07                    1_GWF-(1,50,26)
        348          6         40 -3.79864072E-07                    1_GWF-(1,39,36) -5.18932115E-07                    1_GWF-(1,50,26)
        349          6         41  3.34667421E-07                    1_GWF-(1,16,41)  4.38330357E-07                     1_GWF-(1,1,50)
        350          6         42  3.15888079E-07                    1_GWF-(1,12,32) -3.67610722E-07                     1_GWF-(1,4,44)
        351          6         43 -1.78858613E-07                    1_GWF-(1,43,31) -2.80866113E-07                    1_GWF-(1,50,26)
        352          6         44  1.33077732E-07                    1_GWF-(1,30,45) -1.68298015E-07                     1_GWF-(1,9,45)
        353          6         45 -1.56368036E-07                    1_GWF-(1,35,43)  1.28325050E-07                     1_GWF-(1,9,45)
        354          6         46 -9.45609326E-08                    1_GWF-(1,39,39)  1.10177596E-07                    1_GWF-(1,51,26)
        355          6         47 -5.67681658E-08                    1_GWF-(1,25,18)  6.28294189E-08                     1_GWF-(1,3,45)
        356          6         48  2.55002031E-08                    1_GWF-(1,15,41) -2.03735849E-08                     1_GWF-(1,3,47)
        357          6         49  1.48268381E-08                    1_GWF-(1,12,44)  2.16246516E-08                     1_GWF-(1,5,43)
        358          6         50  1.42527466E-08                    1_GWF-(1,12,42)  1.19518412E-08                     1_GWF-(1,3,45)
        359          6         51  1.00785990E-08                    1_GWF-(1,16,41) -5.42838693E-09                     1_GWF-(1,7,40)
        360          6         52  3.75319444E-09                    1_GWF-(1,15,40) -3.45229126E-09                     1_GWF-(1,6,40)
        361          6         53  1.85243333E-09                    1_GWF-(1,14,39) -2.49570738E-09                     1_GWF-(1,6,40)
        362          6         54  1.10362260E-09                    1_GWF-(1,14,39) -2.09074247E-09                     1_GWF-(1,4,42)
        363          6         55  7.76829333E-10                    1_GWF-(1,14,38) -1.76198606E-09                     1_GWF-(1,6,43)
        364          7          1  1.75429856E-03                    1_GWF-(1,14,39) -6.08603859E-04                    1_GWF-(1,40,36)
        365          7          2  7.29627448E-04                    1_GWF-(1,40,36)  6.31792954E-04                    1_GWF-(1,40,36)
        366          7          3  4.56535384E-04                    1_GWF-(1,10,41)  4.58594990E-04                    1_GWF-(1,41,35)
        367          7          4  3.77317860E-04                    1_GWF-(1,37,40) -5.08881729E-04                    1_GWF-(1,41,35)
        368          7          5  2.10772433E-04                    1_GWF-(1,15,40)  2.82316261E-04                    1_GWF-(1,41,35)
        369          7          6  1.49674804E-04                     1_GWF-(1,2,43)  1.74163221E-04                    1_GWF-(1,42,34)
        370          7          7  1.19848699E-04                     1_GWF-(1,1,45) -1.27559663E-04                    1_GWF-(1,42,33)
        371          7          8  7.93840736E-05                    1_GWF-(1,18,20)  1.19696360E-04                    1_GWF-(1,40,37)
        372          7          9 -1.06286058E-04                    1_GWF-(1,18,20) -8.12318125E-05                    1_GWF-(1,40,37)
        373          7         10 -7.55631119E-05                    1_GWF-(1,19,19)  5.87419013E-05                    1_GWF-(1,18,20)
        374          7         11 -7.07428104E-05                    1_GWF-(1,18,20)  3.92584985E-05                     1_GWF-(1,5,50)
        375          7         12 -4.13200820E-05                    1_GWF-(1,17,21)  2.55908474E-05                    1_GWF-(1,18,20)
        376          7         13 -3.86835898E-05                    1_GWF-(1,18,20) -2.32898729E-05                     1_GWF-(1,4,50)
        377          7         14 -2.44976874E-05                    1_GWF-(1,17,21)  1.53569683E-05                     1_GWF-(1,5,50)
        378          7         15 -2.87984493E-05                    1_GWF-(1,18,20)  2.02453199E-05                     1_GWF-(1,3,50)
        379          7         16 -2.31204132E-05                    1_GWF-(1,19,19) -1.88220360E-05                     1_GWF-(1,3,50)
        380          7         17 -1.75709099E-05                    1_GWF-(1,15,23)  1.30899244E-05                    1_GWF-(1,14,24)
        381          7         18 -2.21410221E-05                    1_GWF-(1,14,24) -1.51704594E-05                    1_GWF-(1,14,24)
        382          7         19 -1.85271404E-05                    1_GWF-(1,15,23) -1.38847429E-05                    1_GWF-(1,13,25)
        383          7         20 -1.67109204E-05                    1_GWF-(1,14,24)  1.53019587E-05                    1_GWF-(1,13,25)
        384          7         21 -1.64157893E-05                    1_GWF-(1,13,26)  1.24134164E-05                    1_GWF-(1,14,24)
        385          7         22 -1.75145888E-05                    1_GWF-(1,14,24) -1.28934276E-05                     1_GWF-(1,6,49)
        386          7         23 -1.04923876E-05                    1_GWF-(1,15,23) -8.15691161E-06                     1_GWF-(1,4,49)
        387          7         24  7.07836081E-06                    1_GWF-(1,17,42)  5.23450748E-06                     1_GWF-(1,8,48)
        388          7         25 -3.17728527E-06                    1_GWF-(1,24,45)  3.08418147E-06                     1_GWF-(1,8,47)
        389          7         26 -2.64984470E-06                    1_GWF-(1,26,46) -1.82943401E-06                    1_GWF-(1,45,19)
        390          7         27  8.80719100E-07                    1_GWF-(1,37,41) -1.05520634E-06                     1_GWF-(1,7,43)
        391          7         28 -7.14341206E-07                    1_GWF-(1,14,38) -7.31725044E-07                     1_GWF-(1,8,48)
        392          7         29  5.81040317E-07                    1_GWF-(1,26,47)  6.75265214E-07                     1_GWF-(1,8,48)
        393          7         30 -5.25097380E-07                    1_GWF-(1,16,41)  7.21138473E-07                     1_GWF-(1,6,48)
        394          7         31 -4.71118835E-07                    1_GWF-(1,18,43) -5.11286667E-07                     1_GWF-(1,4,43)
        395          7         32  4.44839814E-07                    1_GWF-(1,38,38)  4.74508577E-07                    1_GWF-(1,10,47)
        396          7         33  3.97573386E-07                    1_GWF-(1,37,41) -4.02319587E-07                    1_GWF-(1,49,27)
        397          7         34  3.05122661E-07                    1_GWF-(1,39,37) -2.06668619E-07                     1_GWF-(1,8,47)
        398          7         35  2.06509353E-07                    1_GWF-(1,38,38) -1.55632261E-07                    1_GWF-(1,50,23)
        399          7         36  1.24898034E-07                    1_GWF-(1,30,46)  1.40271937E-07                    1_GWF-(1,10,46)
        400          7         37  9.31021225E-08                    1_GWF-(1,40,36) -1.38163972E-07                    1_GWF-(1,10,46)
        401          7         38 -1.01732918E-07                    1_GWF-(1,13,26) -1.13077827E-07                    1_GWF-(1,50,24)
        402          7         39 -1.56388759E-07                    1_GWF-(1,12,28)  1.21883324E-07                    1_GWF-(1,12,45)
        403          7         40 -1.27074253E-07                    1_GWF-(1,13,26) -1.11612363E-07                    1_GWF-(1,50,12)
        404          7         41 -9.29809234E-08                     1_GWF-(1,6,28)  1.03169511E-07                    1_GWF-(1,50,27)
        405          7         42  7.64671202E-08                    1_GWF-(1,40,33)  9.64869718E-08                     1_GWF-(1,9,44)
        406          7         43  7.46486972E-08                    1_GWF-(1,41,32)  6.31163776E-08                     1_GWF-(1,5,41)
        407          7         44  3.89595431E-08                    1_GWF-(1,42,31)  3.61677095E-08                    1_GWF-(1,51,25)
        408          7         45  2.67487770E-08                    1_GWF-(1,38,39)  1.87058073E-08                     1_GWF-(1,5,43)
        409          7         46  2.29793576E-08                    1_GWF-(1,37,40)  1.53604981E-08                     1_GWF-(1,5,42)
        410          7         47  1.05718343E-08                    1_GWF-(1,36,42)  6.74896639E-09                     1_GWF-(1,4,42)
        411          7         48  3.69487579E-09                    1_GWF-(1,42,43)  3.77646006E-09                    1_GWF-(1,10,43)
        412          7         49  1.81404471E-09                    1_GWF-(1,32,45)  2.86425115E-09                     1_GWF-(1,3,47)
        413          7         50  1.18263305E-09                    1_GWF-(1,33,46)  2.09739107E-09                     1_GWF-(1,5,47)
        414          7         51  9.35821894E-10                    1_GWF-(1,32,19)  1.79320727E-09                     1_GWF-(1,7,46)
        415          8          1  3.87914952E-04                    1_GWF-(1,35,42) -2.39367966E-04                    1_GWF-(1,12,36)
        416          8          2 -1.62082121E-04                    1_GWF-(1,41,34) -1.26090433E-04                    1_GWF-(1,38,39)
        417          8          3 -9.73556022E-05                    1_GWF-(1,43,33) -1.01099454E-04                    1_GWF-(1,39,38)
        418          8          4 -6.57404089E-05                    1_GWF-(1,46,32)  9.09102302E-05                    1_GWF-(1,39,38)
        419          8          5 -8.33972760E-05                    1_GWF-(1,49,32)  9.78813089E-05                    1_GWF-(1,40,37)
        420          8          6 -8.76388261E-05                    1_GWF-(1,51,31)  7.40350184E-05                    1_GWF-(1,41,36)
        421          8          7 -6.84564839E-05                    1_GWF-(1,14,24) -6.19748902E-05                    1_GWF-(1,14,24)
        422          8          8 -7.45037660E-05                    1_GWF-(1,40,32)  6.57602888E-05                    1_GWF-(1,14,24)
        423          8          9 -6.63943477E-05                    1_GWF-(1,40,37)  5.42872897E-05                    1_GWF-(1,41,36)
        424          8         10 -6.06535363E-05                    1_GWF-(1,12,39)  5.21220019E-05                    1_GWF-(1,42,35)
        425          8         11 -5.56291348E-05                    1_GWF-(1,38,40) -3.37799861E-05                    1_GWF-(1,42,35)
        426          8         12 -3.49780064E-05                    1_GWF-(1,38,38)  3.36764495E-05                    1_GWF-(1,38,40)
        427          8         13 -2.94890759E-05                    1_GWF-(1,14,24) -3.02037257E-05                    1_GWF-(1,38,40)
        428          8         14  2.74410142E-05                    1_GWF-(1,38,40) -2.27018985E-05                    1_GWF-(1,39,39)
        429          8         15  2.28612562E-05                    1_GWF-(1,37,41) -1.90762118E-05                    1_GWF-(1,43,34)
[...]
        581         11         11 -9.85387031E-07                    1_GWF-(1,14,24)  6.29371922E-07                    1_GWF-(1,13,25)
        582         11         12 -7.33586802E-07                    1_GWF-(1,15,23)  4.17551136E-07                    1_GWF-(1,14,24)
        583         11         13 -5.89783843E-07                    1_GWF-(1,14,24) -4.17529773E-07                     1_GWF-(1,4,50)
        584         11         14 -4.87141498E-07                    1_GWF-(1,18,20)  3.76821232E-07                     1_GWF-(1,5,50)
        585         11         15 -4.90290225E-07                    1_GWF-(1,19,19) -4.53199106E-07                     1_GWF-(1,6,50)
        586         11         16 -5.65532612E-07                    1_GWF-(1,18,20) -3.44679817E-07                     1_GWF-(1,4,50)
        587         11         17 -3.80135376E-07                    1_GWF-(1,38,38)  3.13260502E-07                     1_GWF-(1,5,50)
        588         11         18 -3.27389251E-07                    1_GWF-(1,18,20) -2.96978892E-07                    1_GWF-(1,44,32)
        589         11         19 -2.59430057E-07                    1_GWF-(1,17,21) -2.42659027E-07                    1_GWF-(1,45,31)
        590         11         20 -2.27675339E-07                    1_GWF-(1,18,20)  2.03693252E-07                    1_GWF-(1,45,31)
        591         11         21 -1.47241034E-07                    1_GWF-(1,14,39)  1.06354134E-07                    1_GWF-(1,45,32)
        592         11         22  1.03752218E-07                    1_GWF-(1,26,15) -1.27726754E-07                     1_GWF-(1,6,49)
        593         11         23  9.05735186E-08                    1_GWF-(1,26,13)  8.46900237E-08                    1_GWF-(1,44,33)
        594         11         24 -5.40302119E-08                    1_GWF-(1,37,41)  5.60098954E-08                     1_GWF-(1,8,44)
        595         11         25 -2.88170558E-08                    1_GWF-(1,26,46)  3.10854761E-08                     1_GWF-(1,8,47)
        596         11         26 -2.05440536E-08                    1_GWF-(1,26,46) -1.68878449E-08                    1_GWF-(1,46,31)
        597         11         27  9.57740712E-09                    1_GWF-(1,18,20) -8.86409146E-09                     1_GWF-(1,7,49)
        598         11         28  4.61852977E-09                    1_GWF-(1,19,19)  4.31348716E-09                     1_GWF-(1,9,44)
        599         11         29 -1.96491158E-09                    1_GWF-(1,14,38)  2.62344591E-09                     1_GWF-(1,6,41)
        600         11         30  1.16685417E-09                    1_GWF-(1,26,47)  2.06750160E-09                      1_GWF-(1,2,5)
        601         11         31 -8.65803474E-10                    1_GWF-(1,13,36)  1.80402625E-09                     1_GWF-(1,3,40)
        602         12          1 -3.15222481E-06                    1_GWF-(1,13,36) -1.61445280E-06                    1_GWF-(1,12,36)
        603         12          2 -1.38409368E-06                    1_GWF-(1,38,39) -9.85669217E-07                    1_GWF-(1,38,39)
        604         12          3 -7.99555775E-07                    1_GWF-(1,17,42) -7.24599467E-07                    1_GWF-(1,39,38)
        605         12          4 -5.99163294E-07                    1_GWF-(1,46,34)  8.63685951E-07                    1_GWF-(1,39,38)
        606         12          5 -7.83044508E-07                    1_GWF-(1,39,38)  8.38903263E-07                    1_GWF-(1,40,37)
        607         12          6 -6.91838354E-07                    1_GWF-(1,40,37)  5.01958818E-07                    1_GWF-(1,41,36)
        608         12          7 -4.70625116E-07                    1_GWF-(1,37,41) -3.52881651E-07                    1_GWF-(1,12,39)
        609         12          8 -4.56686080E-07                    1_GWF-(1,13,36) -3.90493253E-07                    1_GWF-(1,40,36)
        610         12          9 -3.82041503E-07                    1_GWF-(1,38,38)  2.31164409E-07                    1_GWF-(1,41,36)
        611         12         10 -2.78197478E-07                    1_GWF-(1,12,39) -2.59685015E-07                    1_GWF-(1,41,36)
        612         12         11 -2.69923794E-07                    1_GWF-(1,38,40) -1.88647896E-07                    1_GWF-(1,11,40)
        613         12         12 -2.46243130E-07                    1_GWF-(1,13,26) -2.10586172E-07                    1_GWF-(1,10,41)
        614         12         13 -3.34658539E-07                    1_GWF-(1,14,24) -2.20372748E-07                    1_GWF-(1,38,40)
        615         12         14 -2.79917470E-07                    1_GWF-(1,15,23) -2.18274315E-07                     1_GWF-(1,3,47)
        616         12         15 -1.59220392E-07                    1_GWF-(1,14,24) -1.41333174E-07                    1_GWF-(1,43,34)
        617         12         16 -1.01499065E-07                    1_GWF-(1,19,19) -1.58899682E-07                     1_GWF-(1,7,43)
        618         12         17 -8.68240220E-08                    1_GWF-(1,51,26) -8.93172813E-08                    1_GWF-(1,40,36)
        619         12         18 -6.81215942E-08                    1_GWF-(1,13,25) -5.96865754E-08                     1_GWF-(1,5,45)
        620         12         19 -7.03781136E-08                    1_GWF-(1,14,24) -4.68789102E-08                     1_GWF-(1,6,44)
        621         12         20 -4.59058457E-08                    1_GWF-(1,15,23) -4.27460070E-08                     1_GWF-(1,8,42)
        622         12         21 -3.48849830E-08                    1_GWF-(1,18,20)  2.43075768E-08                     1_GWF-(1,6,44)
        623         12         22 -1.45624290E-08                    1_GWF-(1,19,19)  9.39227197E-09                     1_GWF-(1,8,42)
        624         12         23 -5.61255101E-09                    1_GWF-(1,37,41) -4.98935765E-09                     1_GWF-(1,7,44)
        625         12         24 -1.89597481E-09                    1_GWF-(1,14,24) -2.91940409E-09                     1_GWF-(1,7,44)
        626         12         25 -1.05479099E-09                    1_GWF-(1,14,24) -1.60485348E-09                    1_GWF-(1,48,21)
        627         12         26 -9.74108941E-10                    1_GWF-(1,17,21) -1.40162633E-09                    1_GWF-(1,48,20)
        628         13          1 -1.23231162E-06                    1_GWF-(1,14,39)  5.42683428E-07                    1_GWF-(1,40,36)
        629         13          2 -4.42535698E-07                    1_GWF-(1,40,36) -4.17021699E-07                    1_GWF-(1,40,36)
        630         13          3 -3.22175890E-07                    1_GWF-(1,39,37) -3.48932118E-07                    1_GWF-(1,41,35)
        631         13          4 -1.93851967E-07                    1_GWF-(1,36,41)  2.87199374E-07                    1_GWF-(1,41,35)
        632         13          5 -1.17060475E-07                    1_GWF-(1,15,40) -1.61155796E-07                    1_GWF-(1,41,35)
        633         13          6  8.11575227E-08                    1_GWF-(1,51,23)  1.14883332E-07                    1_GWF-(1,41,34)
        634         13          7  7.88487022E-08                    1_GWF-(1,14,24)  9.16155460E-08                    1_GWF-(1,42,33)
        635         13          8  8.67241750E-08                    1_GWF-(1,15,23) -1.16135809E-07                    1_GWF-(1,40,37)
        636         13          9  1.30702464E-07                    1_GWF-(1,14,24)  1.03154537E-07                    1_GWF-(1,14,24)
        637         13         10  1.04021297E-07                    1_GWF-(1,15,23) -8.57857855E-08                    1_GWF-(1,14,24)
        638         13         11  1.04113818E-07                    1_GWF-(1,14,24) -5.65685914E-08                    1_GWF-(1,13,25)
        639         13         12  7.64435805E-08                    1_GWF-(1,15,23) -4.79905894E-08                    1_GWF-(1,40,38)
        640         13         13  5.16213470E-08                    1_GWF-(1,14,24)  4.33999067E-08                     1_GWF-(1,4,50)
        641         13         14  5.05261669E-08                    1_GWF-(1,18,20) -3.88324745E-08                     1_GWF-(1,5,50)
        642         13         15  4.27996383E-08                    1_GWF-(1,19,19)  4.08993877E-08                    1_GWF-(1,43,34)
        643         13         16  4.25983872E-08                    1_GWF-(1,18,20)  2.91463127E-08                     1_GWF-(1,4,50)
        644         13         17  3.34801276E-08                    1_GWF-(1,14,38) -2.55680069E-08                     1_GWF-(1,5,50)
        645         13         18  2.94123819E-08                    1_GWF-(1,14,24)  2.15545928E-08                    1_GWF-(1,44,32)
        646         13         19  1.80783520E-08                    1_GWF-(1,15,23)  1.64259153E-08                    1_GWF-(1,45,31)
        647         13         20  1.03809921E-08                     1_GWF-(1,8,25)  1.04539061E-08                    1_GWF-(1,10,43)
        648         13         21  7.85554808E-09                    1_GWF-(1,14,39) -5.05330186E-09                     1_GWF-(1,2,42)
        649         13         22  4.84485508E-09                    1_GWF-(1,14,38) -4.58028965E-09                    1_GWF-(1,10,43)
        650         13         23 -3.10090354E-09                    1_GWF-(1,26,15) -3.24574467E-09                    1_GWF-(1,43,34)
        651         13         24 -2.45559441E-09                    1_GWF-(1,26,15) -2.81217160E-09                    1_GWF-(1,46,33)
        652         13         25 -1.88257979E-09                    1_GWF-(1,26,13) -2.82892992E-09                    1_GWF-(1,44,33)
        653         13         26 -1.43332153E-09                    1_GWF-(1,26,12) -2.26683219E-09                    1_GWF-(1,45,31)
        654         13         27 -1.09615617E-09                    1_GWF-(1,26,11) -2.01002304E-09                    1_GWF-(1,45,32)
        655         13         28  9.47006739E-10                     1_GWF-(1,6,36) -2.04814191E-09                    1_GWF-(1,45,32)
        656         14          1  2.91079330E-07                    1_GWF-(1,13,36)  1.42382516E-07                    1_GWF-(1,13,38)
        657         14          2  1.26590020E-07                    1_GWF-(1,38,39)  8.75031351E-08                    1_GWF-(1,38,39)
        658         14          3  7.52384127E-08                    1_GWF-(1,17,42)  6.21663292E-08                    1_GWF-(1,39,38)
        659         14          4  6.17933200E-08                    1_GWF-(1,38,40) -8.45382257E-08                    1_GWF-(1,39,38)
        660         14          5  8.22745732E-08                    1_GWF-(1,39,38) -7.35804074E-08                    1_GWF-(1,40,37)
        661         14          6  6.57823172E-08                    1_GWF-(1,40,37) -3.96409358E-08                    1_GWF-(1,12,39)
        662         14          7  3.91396331E-08                    1_GWF-(1,37,41) -2.94540578E-08                    1_GWF-(1,40,36)
        663         14          8  3.28214490E-08                    1_GWF-(1,38,40)  2.86916222E-08                    1_GWF-(1,40,36)
        664         14          9  2.66501737E-08                    1_GWF-(1,38,38) -1.56260852E-08                    1_GWF-(1,12,39)
        665         14         10  1.69355994E-08                    1_GWF-(1,12,39)  1.44961016E-08                    1_GWF-(1,41,36)
        666         14         11  1.49962643E-08                    1_GWF-(1,38,40)  1.16931900E-08                    1_GWF-(1,11,40)
        667         14         12  1.13008611E-08                    1_GWF-(1,13,26)  1.27644586E-08                    1_GWF-(1,10,41)
        668         14         13  1.23098928E-08                    1_GWF-(1,13,26) -9.68304779E-09                     1_GWF-(1,3,47)
        669         14         14  1.34704434E-08                    1_GWF-(1,14,24)  7.36201807E-09                    1_GWF-(1,43,35)
        670         14         15  7.62535066E-09                    1_GWF-(1,15,23)  5.81988683E-09                     1_GWF-(1,3,47)
        671         14         16  3.82324529E-09                     1_GWF-(1,4,27) -3.20045836E-09                     1_GWF-(1,3,44)
        672         14         17  2.67883012E-09                     1_GWF-(1,2,27) -3.37991429E-09                     1_GWF-(1,3,47)
        673         14         18  2.37713064E-09                     1_GWF-(1,2,27)  2.38207895E-09                     1_GWF-(1,7,43)
        674         14         19  2.08116182E-09                     1_GWF-(1,1,27) -2.35935362E-09                     1_GWF-(1,5,45)
        675         14         20  1.90252371E-09                    1_GWF-(1,51,26)  1.91448160E-09                    1_GWF-(1,10,43)
        676         14         21  1.79794312E-09                    1_GWF-(1,51,25) -2.28866979E-09                     1_GWF-(1,7,43)
        677         14         22  1.69617409E-09                     1_GWF-(1,1,26) -2.13245082E-09                     1_GWF-(1,7,43)
        678         14         23  1.85110635E-09                    1_GWF-(1,14,24) -2.14184443E-09                     1_GWF-(1,9,40)
        679         14         24  1.73579757E-09                    1_GWF-(1,14,24) -1.83417564E-09                     1_GWF-(1,9,39)
        680         14         25  1.47759068E-09                    1_GWF-(1,15,23) -1.94290045E-09                    1_GWF-(1,10,41)
        681         14         26  1.53145766E-09                    1_GWF-(1,15,23) -1.82517407E-09                    1_GWF-(1,10,41)
        682         14         27  1.42782004E-09                    1_GWF-(1,15,23) -1.43964730E-09                     1_GWF-(1,5,42)
        683         14         28  1.22078553E-09                    1_GWF-(1,15,23) -1.35727930E-09                     1_GWF-(1,5,45)
        684         14         29  1.00204895E-09                    1_GWF-(1,15,22) -1.27556232E-09                     1_GWF-(1,5,45)
        685         14         30  8.90161074E-10                    1_GWF-(1,16,21) -1.07606915E-09                     1_GWF-(1,7,43)
        686         15          1  9.72417146E-08                    1_GWF-(1,14,39) -4.60461625E-08                    1_GWF-(1,40,36)
        687         15          2  3.31174762E-08                    1_GWF-(1,13,42)  2.89840008E-08                    1_GWF-(1,40,36)
        688         15          3  2.43158641E-08                    1_GWF-(1,39,37)  2.10717390E-08                    1_GWF-(1,41,35)
        689         15          4  1.15655892E-08                    1_GWF-(1,36,41) -1.16509368E-08                    1_GWF-(1,41,35)
        690         15          5  5.80834184E-09                    1_GWF-(1,15,40)  4.85919903E-09                    1_GWF-(1,39,38)
        691         15          6 -2.55277499E-09                    1_GWF-(1,51,25)  3.44881257E-09                     1_GWF-(1,2,23)
        692         15          7 -1.81722937E-09                    1_GWF-(1,51,24)  2.83157925E-09                     1_GWF-(1,2,21)
        693         15          8 -1.43100564E-09                    1_GWF-(1,51,23)  2.45313587E-09                    1_GWF-(1,50,19)
        694         15          9 -1.24781011E-09                    1_GWF-(1,51,22)  2.14191866E-09                     1_GWF-(1,2,19)
        695         15         10 -1.11805519E-09                    1_GWF-(1,51,21)  1.95756785E-09                     1_GWF-(1,2,18)
        696         15         11 -9.96973941E-10                    1_GWF-(1,51,20)  1.80672877E-09                     1_GWF-(1,2,18)
        697         16          1 -1.26088533E-08                    1_GWF-(1,13,36)  4.19063162E-09                    1_GWF-(1,38,39)
        698         16          2 -4.35912956E-09                    1_GWF-(1,40,37)  1.76051166E-09                     1_GWF-(1,8,36)
        699         16          3 -2.13875436E-09                    1_GWF-(1,41,35)  1.43984225E-09                    1_GWF-(1,44,33)
        700         16          4 -1.52116939E-09                    1_GWF-(1,41,35) -1.33986961E-09                    1_GWF-(1,38,39)
        701         16          5 -1.25696980E-09                    1_GWF-(1,42,35)  1.22020271E-09                    1_GWF-(1,13,38)
        702         16          6 -1.06667584E-09                    1_GWF-(1,40,34)  1.06393831E-09                    1_GWF-(1,48,34)
        703         16          7 -9.92358777E-10                    1_GWF-(1,40,33)  1.10665028E-09                     1_GWF-(1,2,33)
        704         17          1 -1.09678869E-09                    1_GWF-(1,38,39)  1.07514514E-09                     1_GWF-(1,2,33)
        705         17          2 -1.29298089E-09                    1_GWF-(1,38,39)  1.05163668E-09                     1_GWF-(1,2,33)
        706         17          3 -1.18330648E-09                    1_GWF-(1,38,39)  1.03133945E-09                     1_GWF-(1,2,33)
        707         17          4 -1.03895649E-09                    1_GWF-(1,38,40)  1.01128210E-09                     1_GWF-(1,2,33)
        708         17          5 -9.44537834E-10                    1_GWF-(1,38,40)  9.89692142E-10                     1_GWF-(1,2,32)
        709         18          1 -3.01928434E-10                    1_GWF-(1,35,43)  9.66806627E-10                     1_GWF-(1,2,32)
 --------------------------------------------------------------------------------------------------------------------------------------


 UBDSV1 SAVING     FLOW-JA-FACE ON UNIT   1012 AT TIME STEP      1, STRESS PERIOD      1
 UBDSV06 SAVING       DATA-SPDIS IN MODEL EX-GWF-BUMP      PACKAGE NPF             CONNECTED TO MODEL EX-GWF-BUMP      PACKAGE NPF              ON UNIT   1012 AT TIME STEP      1, STRESS PERIOD      1
 UBDSV06 SAVING              CHD IN MODEL EX-GWF-BUMP      PACKAGE EX-GWF-BUMP     CONNECTED TO MODEL EX-GWF-BUMP      PACKAGE CHD_0            ON UNIT   1012 AT TIME STEP      1, STRESS PERIOD      1

 HEAD WILL BE SAVED ON UNIT 1013 AT END OF TIME STEP    1, STRESS PERIOD    1


  VOLUME BUDGET FOR ENTIRE MODEL AT END OF TIME STEP    1, STRESS PERIOD   1
  ---------------------------------------------------------------------------------------------------

     CUMULATIVE VOLUME      L**3       RATES FOR THIS TIME STEP      L**3/T          PACKAGE NAME    
     ------------------                 ------------------------                     ----------------

           IN:                                      IN:
           ---                                      ---
                 CHD =          10.4985                   CHD =          10.4985     CHD_0                            

            TOTAL IN =          10.4985              TOTAL IN =          10.4985

          OUT:                                     OUT:
          ----                                     ----
                 CHD =          10.4985                   CHD =          10.4985     CHD_0                            

           TOTAL OUT =          10.4985             TOTAL OUT =          10.4985

            IN - OUT =      -4.8060E-07              IN - OUT =      -4.8060E-07

 PERCENT DISCREPANCY =          -0.00     PERCENT DISCREPANCY =          -0.00




         TIME SUMMARY AT END OF TIME STEP    1 IN STRESS PERIOD    1
                    SECONDS     MINUTES      HOURS       DAYS        YEARS
                    -----------------------------------------------------------
   TIME STEP LENGTH  86400.      1440.0      24.000      1.0000     2.73785E-03
 STRESS PERIOD TIME  86400.      1440.0      24.000      1.0000     2.73785E-03
         TOTAL TIME  86400.      1440.0      24.000      1.0000     2.73785E-03


end timestep

