                                   MODFLOW 6
                U.S. GEOLOGICAL SURVEY MODULAR HYDROLOGIC MODEL
                          GROUNDWATER FLOW MODEL (GWF)
                   VERSION 6.3.0 release candidate 07/30/2021
                               ***DEVELOP MODE***

   MODFLOW 6 compiled Oct 27 2021 07:53:31 with IFORT compiler (ver. 20.21.1)

This software is preliminary or provisional and is subject to 
revision. It is being provided to meet the need for timely best 
science. The software has not received final approval by the U.S. 
Geological Survey (USGS). No warranty, expressed or implied, is made 
by the USGS or the U.S. Government as to the functionality of the 
software and related material nor shall the fact of release 
constitute any such warranty. The software is provided on the 
condition that neither the USGS nor the U.S. Government shall be held 
liable for any damages resulting from the authorized or unauthorized 
use of the software.


System command used to initiate simulation:
E:\15_REPOS\00_BETAMI\bin\mf6.exe

MODFLOW was compiled using uniform precision.

Real Variables
  KIND: 8
  TINY (smallest non-zero value):    2.225074-308
  HUGE (largest value):    1.797693+308
  PRECISION: 15
  BIT SIZE: 64

Integer Variables
  KIND: 4
  HUGE (largest value): 2147483647
  BIT SIZE: 32

Long Integer Variables
  KIND: 8
  HUGE (largest value): 9223372036854775807
  BIT SIZE: 64

Logical Variables
  KIND: 4
  BIT SIZE: 32
 

 OPENED Freyberg.dis
 FILE TYPE:DIS6                   UNIT 1005   STATUS:OLD                 
 FORMAT:FORMATTED              ACCESS:SEQUENTIAL          
 ACTION:READ                


 OPENED Freyberg.npf
 FILE TYPE:NPF6                   UNIT 1006   STATUS:OLD                 
 FORMAT:FORMATTED              ACCESS:SEQUENTIAL          
 ACTION:READ                


 OPENED Freyberg.ic
 FILE TYPE:IC6                    UNIT 1007   STATUS:OLD                 
 FORMAT:FORMATTED              ACCESS:SEQUENTIAL          
 ACTION:READ                


 OPENED Freyberg.riv
 FILE TYPE:RIV6                   UNIT 1008   STATUS:OLD                 
 FORMAT:FORMATTED              ACCESS:SEQUENTIAL          
 ACTION:READ                


 OPENED Freyberg.wel
 FILE TYPE:WEL6                   UNIT 1009   STATUS:OLD                 
 FORMAT:FORMATTED              ACCESS:SEQUENTIAL          
 ACTION:READ                


 OPENED Freyberg.rcha
 FILE TYPE:RCH6                   UNIT 1010   STATUS:OLD                 
 FORMAT:FORMATTED              ACCESS:SEQUENTIAL          
 ACTION:READ                


 OPENED Freyberg.chd
 FILE TYPE:CHD6                   UNIT 1011   STATUS:OLD                 
 FORMAT:FORMATTED              ACCESS:SEQUENTIAL          
 ACTION:READ                


 OPENED Freyberg.cf.wel
 FILE TYPE:WEL6                   UNIT 1012   STATUS:OLD                 
 FORMAT:FORMATTED              ACCESS:SEQUENTIAL          
 ACTION:READ                


 OPENED Freyberg.oc
 FILE TYPE:OC6                    UNIT 1013   STATUS:OLD                 
 FORMAT:FORMATTED              ACCESS:SEQUENTIAL          
 ACTION:READ                


 OPENED freyberg_0.wel
 FILE TYPE:WEL6                   UNIT 1014   STATUS:OLD                 
 FORMAT:FORMATTED              ACCESS:SEQUENTIAL          
 ACTION:READ                

 NAMEFILE OPTIONS:
    NEWTON-RAPHSON method enabled for the model.
    NEWTON-RAPHSON UNDER-RELAXATION based on the bottom elevation of the model will be applied to the model.

 DIS -- STRUCTURED GRID DISCRETIZATION PACKAGE, VERSION 2 : 3/27/2014 - INPUT READ FROM UNIT 1005


 # File generated by Flopy version 3.9.1 on 06/14/2025 at 08:18:09.
 PROCESSING DISCRETIZATION OPTIONS
    MODEL LENGTH UNIT IS METERS
 END OF DISCRETIZATION OPTIONS
 PROCESSING DISCRETIZATION DIMENSIONS
    NLAY =       1
    NROW =      40
    NCOL =      20
 END OF DISCRETIZATION DIMENSIONS
 PROCESSING GRIDDATA

                     DELR =   250.0000    

                     DELC =   250.0000    

 TOP ELEVATION OF LAYER 1 =   35.00000    
 END PROCESSING GRIDDATA

 THE SPECIFIED IDOMAIN RESULTS IN A REDUCED NUMBER OF CELLS.
 NUMBER OF USER NODES: 800
 NUMBER OF NODES IN SOLUTION: 705



 NPF -- NODE PROPERTY FLOW PACKAGE, VERSION 1, 3/30/2015 INPUT READ FROM UNIT 1006


 # File generated by Flopy version 3.9.1 on 06/14/2025 at 08:18:09.
 PROCESSING NPF OPTIONS
 END OF NPF OPTIONS

 WEL   -- WEL PACKAGE, VERSION 8, 2/22/2014 INPUT READ FROM UNIT 1009
 # File generated by Flopy version 3.9.1 on 06/14/2025 at 08:18:09.

 PROCESSING WEL OPTIONS
 END OF WEL OPTIONS

 PROCESSING WEL DIMENSIONS
    MAXBOUND =       6
 END OF WEL DIMENSIONS

 WEL   -- WEL PACKAGE, VERSION 8, 2/22/2014 INPUT READ FROM UNIT 1012
 # File generated by Flopy version 3.9.1 on 06/14/2025 at 08:18:09.

 PROCESSING WEL OPTIONS
 END OF WEL OPTIONS

 PROCESSING WEL DIMENSIONS
    MAXBOUND =       1
 END OF WEL DIMENSIONS

 WEL   -- WEL PACKAGE, VERSION 8, 2/22/2014 INPUT READ FROM UNIT 1014
 # File generated by Flopy version 3.9.1 on 06/14/2025 at 08:18:09.

 PROCESSING WEL OPTIONS
 END OF WEL OPTIONS

 PROCESSING WEL DIMENSIONS
    MAXBOUND =       9
 END OF WEL DIMENSIONS

 RIV   -- RIV PACKAGE, VERSION 8, 2/22/2014 INPUT READ FROM UNIT 1008
 # File generated by Flopy version 3.9.1 on 06/14/2025 at 08:18:09.

 PROCESSING RIV OPTIONS
 END OF RIV OPTIONS

 PROCESSING RIV DIMENSIONS
    MAXBOUND =      40
 END OF RIV DIMENSIONS

 RCH   -- RCH PACKAGE, VERSION 8, 2/22/2014 INPUT READ FROM UNIT 1010
 # File generated by Flopy version 3.9.1 on 06/14/2025 at 08:18:09.

 PROCESSING RCH OPTIONS
    RECHARGE INPUT WILL BE READ AS ARRAY(S).
 END OF RCHA OPTIONS

 CHD   -- CHD PACKAGE, VERSION 8, 2/22/2014 INPUT READ FROM UNIT 1011
 # File generated by Flopy version 3.9.1 on 06/14/2025 at 08:18:09.

 PROCESSING CHD OPTIONS
 END OF CHD OPTIONS

 PROCESSING CHD DIMENSIONS
    MAXBOUND =      10
 END OF CHD DIMENSIONS

 IC -- INITIAL CONDITIONS PACKAGE, VERSION 8, 3/28/2015 INPUT READ FROM UNIT 1007
 # File generated by Flopy version 3.9.1 on 06/14/2025 at 08:18:09.
 PROCESSING IC OPTIONS
 END OF IC OPTIONS
 PROCESSING GRIDDATA

     INITIAL HEAD =   45.00000    
 END PROCESSING GRIDDATA
 PROCESSING GRIDDATA

                ICELLTYPE = 1
 K33 not provided.  Assuming K33 = K.
 K22 not provided.  Assuming K22 = K.
 END PROCESSING GRIDDATA
    BINARY GRID INFORMATION WILL BE WRITTEN TO:
      UNIT NUMBER: 1016
      FILE NAME: E:\15_REPOS\00_BETAMI\95_Freyberg\01b\Freyberg.dis.grb

 OPENED E:\15_REPOS\00_BETAMI\95_Freyberg\01b\Freyberg.dis.grb
 FILE TYPE:DATA(BINARY)   UNIT 1016   STATUS:REPLACE             
 FORMAT:UNFORMATTED            ACCESS:STREAM              
 ACTION:READWRITE           

      THE LAST TIME STEP WILL BE PRINTED
      THE LAST TIME STEP WILL BE PRINTED
 # File generated by Flopy version 3.9.1 on 06/14/2025 at 08:18:09.

 PROCESSING OC OPTIONS

    BUDGET INFORMATION WILL BE WRITTEN TO:
      UNIT NUMBER: 1017
      FILE NAME: Freyberg.bud

 OPENED Freyberg.bud
 FILE TYPE:DATA(BINARY)   UNIT 1017   STATUS:REPLACE             
 FORMAT:UNFORMATTED            ACCESS:STREAM              
 ACTION:READWRITE           

    HEAD INFORMATION WILL BE WRITTEN TO:
      UNIT NUMBER: 1018
      FILE NAME: Freyberg.hds

 OPENED Freyberg.hds
 FILE TYPE:DATA(BINARY)   UNIT 1018   STATUS:REPLACE             
 FORMAT:UNFORMATTED            ACCESS:STREAM              
 ACTION:READWRITE           

 END OF OC OPTIONS

start timestep kper="1" kstp="1" mode="normal"


 BEGIN READING OUTPUT CONTROL FOR STRESS PERIOD 1
      ALL TIME STEPS WILL BE SAVED
      ALL TIME STEPS WILL BE SAVED
      ALL TIME STEPS WILL BE PRINTED
      ALL TIME STEPS WILL BE PRINTED

 END READING OUTPUT CONTROL FOR STRESS PERIOD 1

 REUSING WELS FROM LAST STRESS PERIOD

                 RECHARGE =  0.1600000E-08
1
  HEAD IN LAYER   1 AT END OF TIME STEP   1 IN STRESS PERIOD    1
  ---------------------------------------------------------------------------

                1               2               3               4               5               6               7               8               9              10
               11              12              13              14              15              16              17              18              19              20
 ................................................................................................................................................................
   1      22.9021         22.8929         22.8640         22.7517         22.6303         22.4740         22.2511         22.0501         21.7941         21.5163    
          21.2164         20.9131         20.6037         20.3054         20.1007         20.0748         20.1016         20.1246         20.1445         20.1624    
   2      22.7881         22.7566         22.7600         22.6693         22.5863         22.4453         22.2307         22.0185         21.7655         21.4565    
          21.1459         20.8409         20.5168         20.1776         19.8870         19.9536         20.0236         20.0668         20.0933         20.1128    
   3      22.4762         22.4924         22.5500         22.5408         22.5020         22.3869         22.1765         21.9691         21.6883         21.3649    
          21.0189         20.6995         20.3473         20.0055         19.6636         19.7979         19.8864         19.9463         19.9876         20.0113    
   4      22.0036         21.7214         22.1937         22.3538         22.3878         22.3164         22.1139         21.8843         21.5853         21.1710    
          20.8163         20.4929         20.1550         19.8122         19.4366         19.5742         19.7037         19.7817         19.8323         19.8597    
   5      21.3624         19.2582         21.5071         22.1135         22.2774         22.2283         22.0523         21.8064         21.3780         20.9536    
          20.6122         20.2943         19.9481         19.5923         19.2115         19.3359         19.4435         19.5617         19.6299         19.6697    
   6      21.6771         21.4920         21.8952         22.1371         22.2323         22.1745         21.9796         21.6170         21.2378         20.7400    
          20.3526         20.0388         19.7021         19.3709         18.9838         19.0534         19.1720         19.2940         19.4049         19.4513    
   7      21.9340         21.9392         22.0772         22.1687         22.2015         22.0923         21.8668         21.4097         20.9324         20.3917    
          20.0392         19.7158         19.4089         19.1115         18.7482         18.6740         18.8326         19.0100         19.1385         19.2064    
   8      22.1575         22.0906         22.1169         22.1488         22.1737         22.0480         21.7539         21.1223         20.4792         19.9614    
          19.6290         19.3118         19.0438         18.7840         18.5060         18.0162         18.3404         18.6709         18.8650         18.9661    
   9      22.1377         22.0469         22.0245         22.0091        1.000000E+30    1.000000E+30    1.000000E+30     20.3908         19.7737         19.4544    
          19.1557         18.8371         18.5740         18.4152         18.2439         16.3965         17.7898         18.3481         18.6272         18.7409    
  10      21.9675         21.8475         21.7987         21.7089        1.000000E+30    1.000000E+30    1.000000E+30    1.000000E+30     19.1569         18.9302    
          18.6238         18.2794         17.8985         17.9628         18.0437         17.5612         17.9189         18.2523         18.4799         18.5821    
  11      21.5345         21.5120         21.3646         21.2145        1.000000E+30    1.000000E+30    1.000000E+30    1.000000E+30     18.5787         18.3835    
          18.0906         17.5845         16.4923         17.4135         17.8213         17.8040         17.9866         18.2029         18.3670         18.4532    
  12      21.1365         21.0881         20.8817         20.2472        1.000000E+30    1.000000E+30    1.000000E+30    1.000000E+30     18.0196         17.8811    
          17.6189         17.2597         16.8808         17.1173         17.5967         17.7645         17.9558         18.1221         18.2581         18.3230    
  13      20.8407         20.7377         20.5537         20.2828        1.000000E+30    1.000000E+30    1.000000E+30    1.000000E+30     17.5250         17.4103    
          17.1674         16.8661         16.5651         16.4548         17.3583         17.6032         17.8387         18.0075         18.1301         18.1924    
  14      20.4225         20.3516         20.1419         19.9976        1.000000E+30    1.000000E+30    1.000000E+30    1.000000E+30     17.0447         16.9201    
          16.7322         16.4652         15.9436         14.7205         17.0950         17.4284         17.7006         17.8756         17.9818         18.0311    
  15      19.8760         19.8308         19.6629         19.5953        1.000000E+30    1.000000E+30    1.000000E+30    1.000000E+30     16.4349         16.3686    
          16.2775         16.1481         16.0018         15.9451         16.9114         17.2525         17.5477         17.7242         17.8292         17.8742    
  16      19.3013         19.2154         19.0757         19.0599        1.000000E+30    1.000000E+30    1.000000E+30    1.000000E+30     15.6489         15.6041    
          15.6779         15.7499         15.8719         16.1356         16.6941         17.0554         17.3612         17.5492         17.6590         17.7053    
  17      18.4973         18.3344         18.3144         18.3657        1.000000E+30    1.000000E+30    1.000000E+30    1.000000E+30     14.5601         14.6642    
          14.8637         15.1880         15.5056         15.9268         16.4670         16.8358         17.1462         17.3564         17.4666         17.5111    
  18      17.7617         17.5826         17.4402         17.4938        1.000000E+30    1.000000E+30    1.000000E+30    1.000000E+30     13.2478         13.3310    
          13.7259         14.4065         14.9528         15.5169         16.2371         16.6087         16.9095         17.1291         17.2496         17.3076    
  19      16.8285         16.6241         16.4291         16.4326        1.000000E+30    1.000000E+30    1.000000E+30    1.000000E+30     10.7678         11.2701    
          12.0997         13.1893         14.1323         14.8383         16.0012         16.3798         16.6833         16.9039         17.0293         17.0912    
  20      15.7287         15.3692         15.1350         15.0416        1.000000E+30    1.000000E+30    1.000000E+30    1.000000E+30     10.8104         8.31466    
          9.97214         11.6919         13.0588         13.3960         15.7544         16.1393         16.4324         16.6567         16.7975         16.8456    
  21      14.2860         13.8547         13.6250         13.3865        1.000000E+30    1.000000E+30    1.000000E+30    1.000000E+30     9.20720         5.77883    
          7.67478         10.2820         12.4730         13.9953         15.5381         15.8756         16.1487         16.3646         16.5193         16.5876    
  22      14.9333         11.7090         11.6619         11.4204        1.000000E+30    1.000000E+30     12.1856         12.1778         7.10911         6.62206    
          5.57197         9.13838         12.0500         13.9253         15.3134         15.5458         15.8209         16.0433         16.2075         16.3070    
  23      12.3772         9.86805         10.2076         9.05488         9.01984        1.000000E+30     10.1350         12.0616         6.45227         6.31967    
          3.76861         8.39032         11.6635         13.7749         15.0829         15.0601         15.3444         15.6958         15.9092         16.0318    
  24      13.8239         9.08834         8.10954         9.87070         11.2624         11.4941         10.4776         5.26178         7.02230         5.12601    
          4.33165         8.45717         11.5441         13.5686         14.8436         14.0435         14.6732         15.2543         15.6155         15.7759    
  25      14.4222         9.10606         5.28560         12.8130         11.1087         5.95089         6.28449         5.85242         6.79755         3.07784    
          6.68991         9.05821         11.6456         13.4688         14.5698         10.6296         13.9002         14.8998         15.3799         15.5690    
  26      15.0188         11.5547         10.5979         11.3189         8.69567         7.27128         6.72861         6.60421         4.07973         4.43600    
          7.11319         9.85538         11.9144         13.3918         14.3941         13.5495         14.3166         14.9063         15.2981         15.4720    
  27      14.2840         12.5996         11.6546         10.1766         9.38202         9.07981         7.10676         6.11596         7.08457         7.07725    
          8.90721         10.7843         12.0682         13.2581         14.1903         14.2385         14.6404         15.0378         15.3147         15.4496    
  28      14.7280         13.8639         12.7970         11.8960         11.0727         9.98960         8.98443         8.06928         8.25893         8.92447    
          10.1013         11.1250         12.0902         13.0816         13.9688         14.3922         14.8196         15.1435         15.3539         15.4622    
  29      15.5584         14.4294         13.9569         13.3676         12.2720         11.2100         10.5521         9.93924         9.53994         9.92458    
          10.5446         11.1726         11.8551         12.7831         13.7423         14.3803         14.9007         15.2101         15.3938         15.4830    
  30      15.5364         14.8416         14.4496         13.9040         13.4034         12.7685         12.3469         11.9118         11.0444         10.6990    
          10.7322         10.8763         11.2509         12.1794         13.5119         14.2821         14.8852         15.2226         15.4013         15.4859    
  31      15.5710         15.2564         14.9518         14.7758         14.2859         14.0542         13.7011         13.0673         12.0925         11.2473    
          10.5530         10.1202         9.97713         10.8723         13.2759         14.1544         14.8011         15.1880         15.3613         15.4263    
  32      15.7114         15.5543         15.3841         15.1516         14.9742         14.8986         14.6145         13.7792         12.6258         11.3823    
          10.1467         8.88380         7.74672         7.94554         13.0361         13.9108         14.5744         15.0041         15.2148         15.2829    
  33     1.000000E+30     15.6834         15.6428         15.4761         15.3765         15.2610         15.0895         14.6278         13.4154         11.2799    
          9.68683         8.86673        0.188770         1.08649         12.6978         13.4983         14.2394         14.7381         14.9947         15.0925    
  34     1.000000E+30    1.000000E+30     15.7890         15.6997         15.6474         15.5179         15.2315         14.7690         13.7342         11.7031    
          8.16033        0.660050         5.83969         8.20950         12.5731         13.3606         14.0121         14.5151         14.7846         14.9229    
  35     1.000000E+30    1.000000E+30    1.000000E+30     15.8489         15.8459         15.7481         15.4910         15.0874         14.2925         12.7543    
          10.7884         8.01447         9.47671         10.5748         12.3765         13.1892         13.8083         14.3021         14.5856         14.8091    
  36     1.000000E+30    1.000000E+30    1.000000E+30    1.000000E+30     16.0180         15.9523         15.7657         15.4207         14.9090         13.8557    
          12.5333         11.5603         11.2331         11.5860         12.1630         13.0133         13.6379         14.0772         14.3050        1.000000E+30
  37     1.000000E+30    1.000000E+30    1.000000E+30    1.000000E+30     16.1442         16.1531         16.0101         15.6884         15.2977         14.5754    
          13.5462         12.8294         12.2997         12.0106         11.9447         12.8811         13.4549         13.8741         14.1552        1.000000E+30
  38     1.000000E+30    1.000000E+30    1.000000E+30    1.000000E+30    1.000000E+30     16.3622         16.1965         15.9124         15.5963         14.9929    
          14.0641         13.3809         12.8493         12.2591         11.7185         12.7252         13.2541         13.6539        1.000000E+30    1.000000E+30
  39     1.000000E+30    1.000000E+30    1.000000E+30    1.000000E+30    1.000000E+30     16.5756         16.3379         16.0456         15.7024         15.1289    
          14.2232         13.4830         12.9203         12.2739         11.4935         12.5709         13.0026        1.000000E+30    1.000000E+30    1.000000E+30
  40     1.000000E+30    1.000000E+30    1.000000E+30    1.000000E+30    1.000000E+30     16.9000         16.4000         16.1000         15.6000         15.1000    
          14.0000         13.0000         12.5000         12.0000         11.4000        1.000000E+30    1.000000E+30    1.000000E+30    1.000000E+30    1.000000E+30

 HEAD WILL BE SAVED ON UNIT 1018 AT END OF TIME STEP    1, STRESS PERIOD    1


  VOLUME BUDGET FOR ENTIRE MODEL AT END OF TIME STEP    1, STRESS PERIOD   1
  ---------------------------------------------------------------------------------------------------

     CUMULATIVE VOLUME      L**3       RATES FOR THIS TIME STEP      L**3/T          PACKAGE NAME    
     ------------------                 ------------------------                     ----------------

           IN:                                      IN:
           ---                                      ---
                 WEL =           0.0000                   WEL =           0.0000     WEL-1           
                 WEL =           0.0000                   WEL =           0.0000     CF-1            
                 WEL =           0.0000                   WEL =           0.0000     WEL_0           
                 RIV =       3.5057E-02                   RIV =       3.5057E-02     RIV-1           
                RCHA =       6.9500E-02                  RCHA =       6.9500E-02     RCHA_0          
                 CHD =       3.5555E-04                   CHD =       3.5555E-04     CHD_0           

            TOTAL IN =           0.1049              TOTAL IN =           0.1049

          OUT:                                     OUT:
          ----                                     ----
                 WEL =       2.2050E-02                   WEL =       2.2050E-02     WEL-1           
                 WEL =           0.0000                   WEL =           0.0000     CF-1            
                 WEL =       7.6122E-02                   WEL =       7.6122E-02     WEL_0           
                 RIV =       7.3632E-03                   RIV =       7.3632E-03     RIV-1           
                RCHA =           0.0000                  RCHA =           0.0000     RCHA_0          
                 CHD =       4.6973E-04                   CHD =       4.6973E-04     CHD_0           

           TOTAL OUT =           0.1060             TOTAL OUT =           0.1060

            IN - OUT =      -1.0929E-03              IN - OUT =      -1.0929E-03

 PERCENT DISCREPANCY =          -1.04     PERCENT DISCREPANCY =          -1.04




         TIME SUMMARY AT END OF TIME STEP    1 IN STRESS PERIOD    1
                    SECONDS     MINUTES      HOURS       DAYS        YEARS
                    -----------------------------------------------------------
   TIME STEP LENGTH  1.0000     1.66667E-02 2.77778E-04 1.15741E-05 3.16881E-08
 STRESS PERIOD TIME  1.0000     1.66667E-02 2.77778E-04 1.15741E-05 3.16881E-08
         TOTAL TIME  1.0000     1.66667E-02 2.77778E-04 1.15741E-05 3.16881E-08


         ****FAILED TO MEET SOLVER CONVERGENCE CRITERIA IN TIME STEP 1 OF STRESS PERIOD 1****

end timestep

