                                   MODFLOW 6
                U.S. GEOLOGICAL SURVEY MODULAR HYDROLOGIC MODEL
                          GROUNDWATER FLOW MODEL (GWF)
                            VERSION 6.6.0 12/20/2024

   MODFLOW 6 compiled Dec 31 2024 17:10:16 with Intel(R) Fortran Intel(R) 64
   Compiler Classic for applications running on Intel(R) 64, Version 2021.7.0
                             Build 20220726_000000

This software has been approved for release by the U.S. Geological 
Survey (USGS). Although the software has been subjected to rigorous 
review, the USGS reserves the right to update the software as needed 
pursuant to further analysis and review. No warranty, expressed or 
implied, is made by the USGS or the U.S. Government as to the 
functionality of the software and related material nor shall the 
fact of release constitute any such warranty. Furthermore, the 
software is released on condition that neither the USGS nor the U.S. 
Government shall be held liable for any damages resulting from its 
authorized or unauthorized use. Also refer to the USGS Water 
Resources Software User Rights Notice for complete use, copyright, 
and distribution information.


As a work of the United States Government, this USGS product is 
in the public domain within the United States. You can copy, 
modify, distribute, and perform the work, even for commercial 
purposes, all without asking permission. Additionally, USGS 
waives copyright and related rights in the work worldwide 
through CC0 1.0 Universal Public Domain Dedication 
(https://creativecommons.org/publicdomain/zero/1.0/).

The following GNU Lesser General Public License (LGPL) libraries
are used in this USGS product:

    SPARSKIT version 2.0
      ilut, luson, and qsplit 
      (https://www-users.cse.umn.edu/~saad/software/SPARSKIT/)

    RCM - Reverse Cuthill McKee Ordering
      (https://people.math.sc.edu/Burkardt/f_src/rcm/rcm.html)

    BLAS - Basic Linear Algebra Subprograms Level 1
      (https://people.math.sc.edu/Burkardt/f_src/blas1_d/blas1_d.html)

    SPARSEKIT - Sparse Matrix Utility Package
      amux, dperm, dvperm, rperm, and cperm
      (https://people.sc.fsu.edu/~jburkardt/f77_src/sparsekit/sparsekit.html)

The following BSD-3 License libraries are used in this USGS product:

    Modern Fortran DAG Library
      Copyright (c) 2018, Jacob Williams
      All rights reserved.
      (https://github.com/jacobwilliams/daglib)

MODFLOW 6 compiler options: /O2 /heap-arrays:0 /fpe:0 /traceback /nologo /fpp
/c /module:win64\mod_mf6\ /object:win64\obj_mf6\

System command used to initiate simulation:
C:\Users\gross.DESKTOP-AIRQM2M\anaconda3\Scripts\mf6.exe

MODFLOW was compiled using uniform precision.

Real Variables
  KIND: 8
  TINY (smallest non-zero value):    2.225074-308
  HUGE (largest value):    1.797693+308
  PRECISION: 15
  SIZE IN BITS: 64

Integer Variables
  KIND: 4
  HUGE (largest value): 2147483647
  SIZE IN BITS: 32

Long Integer Variables
  KIND: 8
  HUGE (largest value): 9223372036854775807
  SIZE IN BITS: 64

Logical Variables
  KIND: 4
  SIZE IN BITS: 32
 
 NAMEFILE OPTIONS:
    FLOWS WILL BE SAVED TO BUDGET FILE SPECIFIED IN OUTPUT CONTROL
 END NAMEFILE OPTIONS:

 DIS -- STRUCTURED GRID DISCRETIZATION PACKAGE, VERSION 2 : 3/27/2014 - INPUT READ FROM MEMPATH: __INPUT__/GWF_P08_MF6/DIS                         


 NPF -- NODE PROPERTY FLOW PACKAGE, VERSION 1, 3/30/2015 INPUT READ FROM MEMPATH: __INPUT__/GWF_P08_MF6/NPF                         


 IC -- Initial Conditions Package, Version 8, 3/28/2015 input read from mempath: __INPUT__/GWF_P08_MF6/IC                          


 Setting Discretization Options
    Model length unit [0=UND, 1=FEET, 2=METERS, 3=CENTIMETERS] set as 2
 End Setting Discretization Options

 Setting Discretization Dimensions
    NLAY = 27
    NROW = 1
    NCOL = 50
 End Setting Discretization Dimensions

 Setting Discretization Griddata
    DELR set from input file
    DELC set from input file
    TOP set from input file
    BOTM set from input file
    IDOMAIN set from input file
 End Setting Discretization Griddata

 Setting NPF Options
    Specific discharge will be calculated at cell centers and written to DATA-SPDIS in budget file when requested.
 End Setting NPF Options

 Setting NPF Griddata
    ICELLTYPE set from input file
    K set from input file
    K33 set from input file
    K22 not provided.  Setting K22 = K.
 End Setting NPF Griddata


 RCH   -- RCH PACKAGE, VERSION 8, 2/22/2014 INPUT READ FROM MEMPATH: __INPUT__/GWF_P08_MF6/RCH-1                       

 PROCESSING RCH BASE OPTIONS
    RCH FLOWS WILL BE PRINTED TO LISTING FILE.
 END OF RCH BASE OPTIONS

 PROCESSING RCHA OPTIONS
    RECHARGE INPUT WILL BE READ AS ARRAY(S).
 END OF RCHA OPTIONS

 CHD   -- CHD PACKAGE, VERSION 8, 2/22/2014 INPUT READ FROM MEMPATH: __INPUT__/GWF_P08_MF6/CHD-1                       

 PROCESSING CHD BASE OPTIONS
 END OF CHD BASE OPTIONS

 PROCESSING CHD BASE DIMENSIONS
    MAXBOUND =      22
 END OF CHD BASE DIMENSIONS
    STRT set from input file

 CELL CONVERSIONS FOR ITER.=0  STEP=0  PERIOD=0   (NODE or LRC)
     DRY            (1,1,26) DRY            (1,1,27) DRY            (1,1,28) DRY            (1,1,29) DRY            (1,1,30)
     DRY            (1,1,31) DRY            (1,1,32) DRY            (1,1,33) DRY            (1,1,34) DRY            (1,1,35)
     DRY            (1,1,36) DRY            (1,1,37) DRY            (1,1,38) DRY            (1,1,39) DRY            (1,1,40)
     DRY            (1,1,41) DRY            (1,1,42) DRY            (1,1,43) DRY            (1,1,44) DRY            (1,1,45)
     DRY            (1,1,46) DRY            (1,1,47) DRY            (1,1,48) DRY            (1,1,49) DRY            (1,1,50)
     DRY            (2,1,30) DRY            (2,1,31) DRY            (2,1,32) DRY            (2,1,33) DRY            (2,1,34)
     DRY            (2,1,35) DRY            (2,1,36) DRY            (2,1,37) DRY            (2,1,38) DRY            (2,1,39)
     DRY            (2,1,40) DRY            (2,1,41) DRY            (2,1,42) DRY            (2,1,43) DRY            (2,1,44)
     DRY            (2,1,45) DRY            (2,1,46) DRY            (2,1,47) DRY            (2,1,48) DRY            (2,1,49)
     DRY            (2,1,50) DRY            (3,1,33) DRY            (3,1,34) DRY            (3,1,35) DRY            (3,1,36)
     DRY            (3,1,37) DRY            (3,1,38) DRY            (3,1,39) DRY            (3,1,40) DRY            (3,1,41)
     DRY            (3,1,42) DRY            (3,1,43) DRY            (3,1,44) DRY            (3,1,45) DRY            (3,1,46)
     DRY            (3,1,47) DRY            (3,1,48) DRY            (3,1,49) DRY            (3,1,50) DRY            (4,1,36)
     DRY            (4,1,37) DRY            (4,1,38) DRY            (4,1,39) DRY            (4,1,40) DRY            (4,1,41)
     DRY            (4,1,42) DRY            (4,1,43) DRY            (4,1,44) DRY            (4,1,45) DRY            (4,1,46)
     DRY            (4,1,47) DRY            (4,1,48) DRY            (4,1,49) DRY            (4,1,50) DRY            (5,1,43)
     DRY            (5,1,44) DRY            (5,1,45) DRY            (5,1,46) DRY            (5,1,47) DRY            (5,1,48)
     DRY            (5,1,49) DRY            (5,1,50)

 STO -- STORAGE PACKAGE, VERSION 1, 5/19/2014 INPUT READ FROM MEMPATH: __INPUT__/GWF_P08_MF6/STO                         


 PROCESSING STORAGE OPTIONS
 END OF STORAGE OPTIONS
    BINARY GRID INFORMATION WILL BE WRITTEN TO:
      UNIT NUMBER: 1026
      FILE NAME: gwf_p08_mf6.dis.grb

 OPENED gwf_p08_mf6.dis.grb
 FILE TYPE:DATA(BINARY)   UNIT 1026   STATUS:REPLACE             
 FORMAT:UNFORMATTED            ACCESS:STREAM              
 ACTION:READWRITE           

      THE LAST TIME STEP WILL BE PRINTED
      THE LAST TIME STEP WILL BE PRINTED
 # File generated by Flopy version 3.9.1 on 02/27/2025 at 08:16:08.

 PROCESSING OC OPTIONS

    BUDGET INFORMATION WILL BE WRITTEN TO:
      UNIT NUMBER: 1027
      FILE NAME: gwf_p08_mf6.bud

 OPENED gwf_p08_mf6.bud
 FILE TYPE:DATA(BINARY)   UNIT 1027   STATUS:REPLACE             
 FORMAT:UNFORMATTED            ACCESS:STREAM              
 ACTION:READWRITE           

    HEAD INFORMATION WILL BE WRITTEN TO:
      UNIT NUMBER: 1028
      FILE NAME: gwf_p08_mf6.hds

 OPENED gwf_p08_mf6.hds
 FILE TYPE:DATA(BINARY)   UNIT 1028   STATUS:REPLACE             
 FORMAT:UNFORMATTED            ACCESS:STREAM              
 ACTION:READWRITE           

 END OF OC OPTIONS

start timestep kper="1" kstp="1" mode="normal"


 BEGIN READING OUTPUT CONTROL FOR STRESS PERIOD 1
      THE LAST TIME STEP WILL BE SAVED
      THE LAST TIME STEP WILL BE SAVED
      THE LAST TIME STEP WILL BE PRINTED
      THE LAST TIME STEP WILL BE PRINTED

 END READING OUTPUT CONTROL FOR STRESS PERIOD 1

end timestep


start timestep kper="1" kstp="2" mode="normal"


end timestep


start timestep kper="1" kstp="3" mode="normal"


end timestep


start timestep kper="1" kstp="4" mode="normal"


end timestep


start timestep kper="1" kstp="5" mode="normal"


end timestep


start timestep kper="1" kstp="6" mode="normal"


end timestep


start timestep kper="1" kstp="7" mode="normal"


end timestep


start timestep kper="1" kstp="8" mode="normal"


end timestep


start timestep kper="1" kstp="9" mode="normal"


end timestep


start timestep kper="1" kstp="10" mode="normal"


end timestep


start timestep kper="1" kstp="11" mode="normal"


end timestep


start timestep kper="1" kstp="12" mode="normal"


end timestep


start timestep kper="1" kstp="13" mode="normal"


end timestep


start timestep kper="1" kstp="14" mode="normal"


end timestep


start timestep kper="1" kstp="15" mode="normal"


end timestep


start timestep kper="1" kstp="16" mode="normal"


end timestep


start timestep kper="1" kstp="17" mode="normal"


end timestep


start timestep kper="1" kstp="18" mode="normal"


end timestep


start timestep kper="1" kstp="19" mode="normal"


end timestep


start timestep kper="1" kstp="20" mode="normal"


end timestep


start timestep kper="1" kstp="21" mode="normal"


end timestep


start timestep kper="1" kstp="22" mode="normal"


end timestep


start timestep kper="1" kstp="23" mode="normal"


end timestep


start timestep kper="1" kstp="24" mode="normal"


end timestep


start timestep kper="1" kstp="25" mode="normal"


end timestep


start timestep kper="1" kstp="26" mode="normal"


end timestep


start timestep kper="1" kstp="27" mode="normal"


end timestep


start timestep kper="1" kstp="28" mode="normal"


end timestep


start timestep kper="1" kstp="29" mode="normal"


end timestep


start timestep kper="1" kstp="30" mode="normal"


end timestep


start timestep kper="1" kstp="31" mode="normal"


end timestep


start timestep kper="1" kstp="32" mode="normal"


end timestep


start timestep kper="1" kstp="33" mode="normal"


end timestep


start timestep kper="1" kstp="34" mode="normal"


end timestep


start timestep kper="1" kstp="35" mode="normal"


end timestep


start timestep kper="1" kstp="36" mode="normal"


end timestep


start timestep kper="1" kstp="37" mode="normal"


end timestep


start timestep kper="1" kstp="38" mode="normal"


end timestep


start timestep kper="1" kstp="39" mode="normal"


end timestep


start timestep kper="1" kstp="40" mode="normal"


end timestep


start timestep kper="1" kstp="41" mode="normal"


end timestep


start timestep kper="1" kstp="42" mode="normal"


end timestep


start timestep kper="1" kstp="43" mode="normal"


end timestep


start timestep kper="1" kstp="44" mode="normal"


end timestep


start timestep kper="1" kstp="45" mode="normal"


end timestep


start timestep kper="1" kstp="46" mode="normal"


end timestep


start timestep kper="1" kstp="47" mode="normal"


end timestep


start timestep kper="1" kstp="48" mode="normal"


end timestep


start timestep kper="1" kstp="49" mode="normal"


end timestep


start timestep kper="1" kstp="50" mode="normal"


end timestep


start timestep kper="1" kstp="51" mode="normal"


end timestep


start timestep kper="1" kstp="52" mode="normal"


end timestep


start timestep kper="1" kstp="53" mode="normal"


end timestep


start timestep kper="1" kstp="54" mode="normal"


end timestep


start timestep kper="1" kstp="55" mode="normal"


end timestep


start timestep kper="1" kstp="56" mode="normal"


end timestep


start timestep kper="1" kstp="57" mode="normal"


end timestep


start timestep kper="1" kstp="58" mode="normal"


end timestep


start timestep kper="1" kstp="59" mode="normal"


end timestep


start timestep kper="1" kstp="60" mode="normal"


end timestep


start timestep kper="1" kstp="61" mode="normal"


end timestep


start timestep kper="1" kstp="62" mode="normal"


end timestep


start timestep kper="1" kstp="63" mode="normal"


end timestep


start timestep kper="1" kstp="64" mode="normal"


end timestep


start timestep kper="1" kstp="65" mode="normal"


end timestep


start timestep kper="1" kstp="66" mode="normal"


end timestep


start timestep kper="1" kstp="67" mode="normal"


end timestep


start timestep kper="1" kstp="68" mode="normal"


end timestep


start timestep kper="1" kstp="69" mode="normal"


end timestep


start timestep kper="1" kstp="70" mode="normal"


end timestep


start timestep kper="1" kstp="71" mode="normal"


end timestep


start timestep kper="1" kstp="72" mode="normal"


end timestep


start timestep kper="1" kstp="73" mode="normal"


end timestep


start timestep kper="1" kstp="74" mode="normal"


end timestep


start timestep kper="1" kstp="75" mode="normal"


end timestep


start timestep kper="1" kstp="76" mode="normal"


end timestep


start timestep kper="1" kstp="77" mode="normal"


end timestep


start timestep kper="1" kstp="78" mode="normal"


end timestep


start timestep kper="1" kstp="79" mode="normal"


end timestep


start timestep kper="1" kstp="80" mode="normal"


end timestep


start timestep kper="1" kstp="81" mode="normal"


end timestep


start timestep kper="1" kstp="82" mode="normal"


end timestep


start timestep kper="1" kstp="83" mode="normal"


end timestep


start timestep kper="1" kstp="84" mode="normal"


end timestep


start timestep kper="1" kstp="85" mode="normal"


end timestep


start timestep kper="1" kstp="86" mode="normal"


end timestep


start timestep kper="1" kstp="87" mode="normal"


end timestep


start timestep kper="1" kstp="88" mode="normal"


end timestep


start timestep kper="1" kstp="89" mode="normal"


end timestep


start timestep kper="1" kstp="90" mode="normal"


end timestep


start timestep kper="1" kstp="91" mode="normal"


end timestep


start timestep kper="1" kstp="92" mode="normal"


end timestep


start timestep kper="1" kstp="93" mode="normal"


end timestep


start timestep kper="1" kstp="94" mode="normal"


end timestep


start timestep kper="1" kstp="95" mode="normal"


end timestep


start timestep kper="1" kstp="96" mode="normal"


end timestep


start timestep kper="1" kstp="97" mode="normal"


end timestep


start timestep kper="1" kstp="98" mode="normal"


end timestep


start timestep kper="1" kstp="99" mode="normal"


end timestep


start timestep kper="1" kstp="100" mode="normal"


end timestep


start timestep kper="1" kstp="101" mode="normal"


end timestep


start timestep kper="1" kstp="102" mode="normal"


end timestep


start timestep kper="1" kstp="103" mode="normal"


end timestep


start timestep kper="1" kstp="104" mode="normal"


end timestep


start timestep kper="1" kstp="105" mode="normal"


end timestep


start timestep kper="1" kstp="106" mode="normal"


end timestep


start timestep kper="1" kstp="107" mode="normal"


end timestep


start timestep kper="1" kstp="108" mode="normal"


end timestep


start timestep kper="1" kstp="109" mode="normal"


end timestep


start timestep kper="1" kstp="110" mode="normal"


end timestep


start timestep kper="1" kstp="111" mode="normal"


end timestep


start timestep kper="1" kstp="112" mode="normal"


end timestep


start timestep kper="1" kstp="113" mode="normal"


end timestep


start timestep kper="1" kstp="114" mode="normal"


end timestep


start timestep kper="1" kstp="115" mode="normal"


end timestep


start timestep kper="1" kstp="116" mode="normal"


end timestep


start timestep kper="1" kstp="117" mode="normal"


end timestep


start timestep kper="1" kstp="118" mode="normal"


end timestep


start timestep kper="1" kstp="119" mode="normal"


end timestep


start timestep kper="1" kstp="120" mode="normal"


end timestep


start timestep kper="1" kstp="121" mode="normal"


end timestep


start timestep kper="1" kstp="122" mode="normal"


end timestep


start timestep kper="1" kstp="123" mode="normal"


end timestep


start timestep kper="1" kstp="124" mode="normal"


end timestep


start timestep kper="1" kstp="125" mode="normal"


end timestep


start timestep kper="1" kstp="126" mode="normal"


end timestep


start timestep kper="1" kstp="127" mode="normal"


end timestep


start timestep kper="1" kstp="128" mode="normal"


end timestep


start timestep kper="1" kstp="129" mode="normal"


end timestep


start timestep kper="1" kstp="130" mode="normal"


end timestep


start timestep kper="1" kstp="131" mode="normal"


end timestep


start timestep kper="1" kstp="132" mode="normal"


end timestep


start timestep kper="1" kstp="133" mode="normal"


end timestep


start timestep kper="1" kstp="134" mode="normal"


end timestep


start timestep kper="1" kstp="135" mode="normal"


end timestep


start timestep kper="1" kstp="136" mode="normal"


end timestep


start timestep kper="1" kstp="137" mode="normal"


end timestep


start timestep kper="1" kstp="138" mode="normal"


end timestep


start timestep kper="1" kstp="139" mode="normal"


end timestep


start timestep kper="1" kstp="140" mode="normal"


end timestep


start timestep kper="1" kstp="141" mode="normal"


end timestep


start timestep kper="1" kstp="142" mode="normal"


end timestep


start timestep kper="1" kstp="143" mode="normal"


end timestep


start timestep kper="1" kstp="144" mode="normal"


end timestep


start timestep kper="1" kstp="145" mode="normal"


end timestep


start timestep kper="1" kstp="146" mode="normal"


end timestep


start timestep kper="1" kstp="147" mode="normal"


end timestep


start timestep kper="1" kstp="148" mode="normal"


end timestep


start timestep kper="1" kstp="149" mode="normal"


end timestep


start timestep kper="1" kstp="150" mode="normal"


end timestep


start timestep kper="1" kstp="151" mode="normal"


end timestep


start timestep kper="1" kstp="152" mode="normal"


end timestep


start timestep kper="1" kstp="153" mode="normal"


end timestep


start timestep kper="1" kstp="154" mode="normal"


end timestep


start timestep kper="1" kstp="155" mode="normal"


end timestep


start timestep kper="1" kstp="156" mode="normal"


end timestep


start timestep kper="1" kstp="157" mode="normal"


end timestep


start timestep kper="1" kstp="158" mode="normal"


end timestep


start timestep kper="1" kstp="159" mode="normal"


end timestep


start timestep kper="1" kstp="160" mode="normal"


end timestep


start timestep kper="1" kstp="161" mode="normal"


end timestep


start timestep kper="1" kstp="162" mode="normal"


end timestep


start timestep kper="1" kstp="163" mode="normal"


end timestep


start timestep kper="1" kstp="164" mode="normal"


end timestep


start timestep kper="1" kstp="165" mode="normal"


end timestep


start timestep kper="1" kstp="166" mode="normal"


end timestep


start timestep kper="1" kstp="167" mode="normal"


end timestep


start timestep kper="1" kstp="168" mode="normal"


end timestep


start timestep kper="1" kstp="169" mode="normal"


end timestep


start timestep kper="1" kstp="170" mode="normal"


end timestep


start timestep kper="1" kstp="171" mode="normal"


end timestep


start timestep kper="1" kstp="172" mode="normal"


end timestep


start timestep kper="1" kstp="173" mode="normal"


end timestep


start timestep kper="1" kstp="174" mode="normal"


end timestep


start timestep kper="1" kstp="175" mode="normal"


end timestep


start timestep kper="1" kstp="176" mode="normal"


end timestep


start timestep kper="1" kstp="177" mode="normal"


end timestep


start timestep kper="1" kstp="178" mode="normal"


end timestep


start timestep kper="1" kstp="179" mode="normal"


end timestep


start timestep kper="1" kstp="180" mode="normal"


end timestep


start timestep kper="1" kstp="181" mode="normal"


end timestep


start timestep kper="1" kstp="182" mode="normal"


end timestep


start timestep kper="1" kstp="183" mode="normal"


end timestep


start timestep kper="1" kstp="184" mode="normal"


end timestep


start timestep kper="1" kstp="185" mode="normal"


end timestep


start timestep kper="1" kstp="186" mode="normal"


end timestep


start timestep kper="1" kstp="187" mode="normal"


end timestep


start timestep kper="1" kstp="188" mode="normal"


end timestep


start timestep kper="1" kstp="189" mode="normal"


end timestep


start timestep kper="1" kstp="190" mode="normal"


end timestep


start timestep kper="1" kstp="191" mode="normal"


end timestep


start timestep kper="1" kstp="192" mode="normal"


end timestep


start timestep kper="1" kstp="193" mode="normal"


end timestep


start timestep kper="1" kstp="194" mode="normal"


end timestep


start timestep kper="1" kstp="195" mode="normal"


end timestep


start timestep kper="1" kstp="196" mode="normal"


end timestep


start timestep kper="1" kstp="197" mode="normal"


end timestep


start timestep kper="1" kstp="198" mode="normal"


end timestep


start timestep kper="1" kstp="199" mode="normal"


end timestep


start timestep kper="1" kstp="200" mode="normal"


end timestep


start timestep kper="1" kstp="201" mode="normal"


end timestep


start timestep kper="1" kstp="202" mode="normal"


end timestep


start timestep kper="1" kstp="203" mode="normal"


end timestep


start timestep kper="1" kstp="204" mode="normal"


end timestep


start timestep kper="1" kstp="205" mode="normal"


end timestep


start timestep kper="1" kstp="206" mode="normal"


end timestep


start timestep kper="1" kstp="207" mode="normal"


end timestep


start timestep kper="1" kstp="208" mode="normal"


end timestep


start timestep kper="1" kstp="209" mode="normal"


end timestep


start timestep kper="1" kstp="210" mode="normal"


end timestep


start timestep kper="1" kstp="211" mode="normal"


end timestep


start timestep kper="1" kstp="212" mode="normal"


end timestep


start timestep kper="1" kstp="213" mode="normal"


end timestep


start timestep kper="1" kstp="214" mode="normal"


end timestep


start timestep kper="1" kstp="215" mode="normal"


end timestep


start timestep kper="1" kstp="216" mode="normal"


end timestep


start timestep kper="1" kstp="217" mode="normal"


end timestep


start timestep kper="1" kstp="218" mode="normal"


end timestep


start timestep kper="1" kstp="219" mode="normal"


end timestep


start timestep kper="1" kstp="220" mode="normal"


end timestep


start timestep kper="1" kstp="221" mode="normal"


end timestep


start timestep kper="1" kstp="222" mode="normal"


end timestep


start timestep kper="1" kstp="223" mode="normal"


end timestep


start timestep kper="1" kstp="224" mode="normal"


end timestep


start timestep kper="1" kstp="225" mode="normal"


end timestep


start timestep kper="1" kstp="226" mode="normal"


end timestep


start timestep kper="1" kstp="227" mode="normal"


end timestep


start timestep kper="1" kstp="228" mode="normal"


end timestep


start timestep kper="1" kstp="229" mode="normal"


end timestep


start timestep kper="1" kstp="230" mode="normal"


end timestep


start timestep kper="1" kstp="231" mode="normal"


end timestep


start timestep kper="1" kstp="232" mode="normal"


end timestep


start timestep kper="1" kstp="233" mode="normal"


end timestep


start timestep kper="1" kstp="234" mode="normal"


end timestep


start timestep kper="1" kstp="235" mode="normal"


end timestep


start timestep kper="1" kstp="236" mode="normal"


end timestep


start timestep kper="1" kstp="237" mode="normal"


end timestep


start timestep kper="1" kstp="238" mode="normal"


end timestep


start timestep kper="1" kstp="239" mode="normal"


end timestep


start timestep kper="1" kstp="240" mode="normal"


end timestep


start timestep kper="1" kstp="241" mode="normal"


end timestep


start timestep kper="1" kstp="242" mode="normal"


end timestep


start timestep kper="1" kstp="243" mode="normal"


end timestep


start timestep kper="1" kstp="244" mode="normal"


end timestep


start timestep kper="1" kstp="245" mode="normal"


end timestep


start timestep kper="1" kstp="246" mode="normal"


end timestep


start timestep kper="1" kstp="247" mode="normal"


end timestep


start timestep kper="1" kstp="248" mode="normal"


end timestep


start timestep kper="1" kstp="249" mode="normal"


end timestep


start timestep kper="1" kstp="250" mode="normal"


end timestep


start timestep kper="1" kstp="251" mode="normal"


end timestep


start timestep kper="1" kstp="252" mode="normal"


end timestep


start timestep kper="1" kstp="253" mode="normal"


end timestep


start timestep kper="1" kstp="254" mode="normal"


end timestep


start timestep kper="1" kstp="255" mode="normal"


end timestep


start timestep kper="1" kstp="256" mode="normal"


end timestep


start timestep kper="1" kstp="257" mode="normal"


end timestep


start timestep kper="1" kstp="258" mode="normal"


end timestep


start timestep kper="1" kstp="259" mode="normal"


end timestep


start timestep kper="1" kstp="260" mode="normal"


end timestep


start timestep kper="1" kstp="261" mode="normal"


end timestep


start timestep kper="1" kstp="262" mode="normal"


end timestep


start timestep kper="1" kstp="263" mode="normal"


end timestep


start timestep kper="1" kstp="264" mode="normal"


end timestep


start timestep kper="1" kstp="265" mode="normal"


end timestep


start timestep kper="1" kstp="266" mode="normal"


end timestep


start timestep kper="1" kstp="267" mode="normal"


end timestep


start timestep kper="1" kstp="268" mode="normal"


end timestep


start timestep kper="1" kstp="269" mode="normal"


end timestep


start timestep kper="1" kstp="270" mode="normal"


end timestep


start timestep kper="1" kstp="271" mode="normal"


end timestep


start timestep kper="1" kstp="272" mode="normal"


end timestep


start timestep kper="1" kstp="273" mode="normal"


end timestep


start timestep kper="1" kstp="274" mode="normal"


end timestep


start timestep kper="1" kstp="275" mode="normal"


end timestep


start timestep kper="1" kstp="276" mode="normal"


end timestep


start timestep kper="1" kstp="277" mode="normal"


end timestep


start timestep kper="1" kstp="278" mode="normal"


end timestep


start timestep kper="1" kstp="279" mode="normal"


end timestep


start timestep kper="1" kstp="280" mode="normal"


end timestep


start timestep kper="1" kstp="281" mode="normal"


end timestep


start timestep kper="1" kstp="282" mode="normal"


end timestep


start timestep kper="1" kstp="283" mode="normal"


end timestep


start timestep kper="1" kstp="284" mode="normal"


end timestep


start timestep kper="1" kstp="285" mode="normal"


end timestep


start timestep kper="1" kstp="286" mode="normal"


end timestep


start timestep kper="1" kstp="287" mode="normal"


end timestep


start timestep kper="1" kstp="288" mode="normal"


end timestep


start timestep kper="1" kstp="289" mode="normal"


end timestep


start timestep kper="1" kstp="290" mode="normal"


end timestep


start timestep kper="1" kstp="291" mode="normal"


end timestep


start timestep kper="1" kstp="292" mode="normal"


end timestep


start timestep kper="1" kstp="293" mode="normal"


end timestep


start timestep kper="1" kstp="294" mode="normal"


end timestep


start timestep kper="1" kstp="295" mode="normal"


end timestep


start timestep kper="1" kstp="296" mode="normal"


end timestep


start timestep kper="1" kstp="297" mode="normal"


end timestep


start timestep kper="1" kstp="298" mode="normal"


end timestep


start timestep kper="1" kstp="299" mode="normal"


end timestep


start timestep kper="1" kstp="300" mode="normal"


end timestep


start timestep kper="1" kstp="301" mode="normal"


end timestep


start timestep kper="1" kstp="302" mode="normal"


end timestep


start timestep kper="1" kstp="303" mode="normal"


end timestep


start timestep kper="1" kstp="304" mode="normal"


end timestep


start timestep kper="1" kstp="305" mode="normal"


end timestep


start timestep kper="1" kstp="306" mode="normal"


end timestep


start timestep kper="1" kstp="307" mode="normal"


end timestep


start timestep kper="1" kstp="308" mode="normal"


end timestep


start timestep kper="1" kstp="309" mode="normal"


end timestep


start timestep kper="1" kstp="310" mode="normal"


end timestep


start timestep kper="1" kstp="311" mode="normal"


end timestep


start timestep kper="1" kstp="312" mode="normal"


end timestep


start timestep kper="1" kstp="313" mode="normal"


end timestep


start timestep kper="1" kstp="314" mode="normal"


end timestep


start timestep kper="1" kstp="315" mode="normal"


end timestep


start timestep kper="1" kstp="316" mode="normal"


end timestep


start timestep kper="1" kstp="317" mode="normal"


end timestep


start timestep kper="1" kstp="318" mode="normal"


end timestep


start timestep kper="1" kstp="319" mode="normal"


end timestep


start timestep kper="1" kstp="320" mode="normal"


end timestep


start timestep kper="1" kstp="321" mode="normal"


end timestep


start timestep kper="1" kstp="322" mode="normal"


end timestep


start timestep kper="1" kstp="323" mode="normal"


end timestep


start timestep kper="1" kstp="324" mode="normal"


end timestep


start timestep kper="1" kstp="325" mode="normal"


end timestep


start timestep kper="1" kstp="326" mode="normal"


end timestep


start timestep kper="1" kstp="327" mode="normal"


end timestep


start timestep kper="1" kstp="328" mode="normal"


end timestep


start timestep kper="1" kstp="329" mode="normal"


end timestep


start timestep kper="1" kstp="330" mode="normal"


end timestep


start timestep kper="1" kstp="331" mode="normal"


end timestep


start timestep kper="1" kstp="332" mode="normal"


end timestep


start timestep kper="1" kstp="333" mode="normal"


end timestep


start timestep kper="1" kstp="334" mode="normal"


end timestep


start timestep kper="1" kstp="335" mode="normal"


end timestep


start timestep kper="1" kstp="336" mode="normal"


end timestep


start timestep kper="1" kstp="337" mode="normal"


end timestep


start timestep kper="1" kstp="338" mode="normal"


end timestep


start timestep kper="1" kstp="339" mode="normal"


end timestep


start timestep kper="1" kstp="340" mode="normal"


end timestep


start timestep kper="1" kstp="341" mode="normal"


end timestep


start timestep kper="1" kstp="342" mode="normal"


end timestep


start timestep kper="1" kstp="343" mode="normal"


end timestep


start timestep kper="1" kstp="344" mode="normal"


end timestep


start timestep kper="1" kstp="345" mode="normal"


end timestep


start timestep kper="1" kstp="346" mode="normal"


end timestep


start timestep kper="1" kstp="347" mode="normal"


end timestep


start timestep kper="1" kstp="348" mode="normal"


end timestep


start timestep kper="1" kstp="349" mode="normal"


end timestep


start timestep kper="1" kstp="350" mode="normal"


end timestep


start timestep kper="1" kstp="351" mode="normal"


end timestep


start timestep kper="1" kstp="352" mode="normal"


end timestep


start timestep kper="1" kstp="353" mode="normal"


end timestep


start timestep kper="1" kstp="354" mode="normal"


end timestep


start timestep kper="1" kstp="355" mode="normal"


end timestep


start timestep kper="1" kstp="356" mode="normal"


end timestep


start timestep kper="1" kstp="357" mode="normal"


end timestep


start timestep kper="1" kstp="358" mode="normal"


end timestep


start timestep kper="1" kstp="359" mode="normal"


end timestep


start timestep kper="1" kstp="360" mode="normal"


end timestep


start timestep kper="1" kstp="361" mode="normal"


end timestep


start timestep kper="1" kstp="362" mode="normal"


end timestep


start timestep kper="1" kstp="363" mode="normal"


end timestep


start timestep kper="1" kstp="364" mode="normal"


end timestep


start timestep kper="1" kstp="365" mode="normal"

 UBDSV1 SAVING           STO-SS ON UNIT   1027 AT TIME STEP    365, STRESS PERIOD      1
 UBDSV1 SAVING     FLOW-JA-FACE ON UNIT   1027 AT TIME STEP    365, STRESS PERIOD      1
 UBDSV06 SAVING       DATA-SPDIS IN MODEL GWF_P08_MF6      PACKAGE NPF             CONNECTED TO MODEL GWF_P08_MF6      PACKAGE NPF              ON UNIT   1027 AT TIME STEP    365, STRESS PERIOD      1
 UBDSV06 SAVING             RCHA IN MODEL GWF_P08_MF6      PACKAGE GWF_P08_MF6     CONNECTED TO MODEL GWF_P08_MF6      PACKAGE RCH-1            ON UNIT   1027 AT TIME STEP    365, STRESS PERIOD      1
 UBDSV06 SAVING              CHD IN MODEL GWF_P08_MF6      PACKAGE GWF_P08_MF6     CONNECTED TO MODEL GWF_P08_MF6      PACKAGE CHD-1            ON UNIT   1027 AT TIME STEP    365, STRESS PERIOD      1

 RCHA PACKAGE (RCH-1) FLOW RATES   PERIOD      1   STEP      365
 -----------------------------------------------
   NUMBER   CELLID                    RATE      
 -----------------------------------------------
     1      (1,1,1)               1.36986302E-03
     2      (1,1,2)               1.36986302E-03
     3      (1,1,3)               1.36986302E-03
     4      (1,1,4)               1.36986302E-03
     5      (1,1,5)               1.36986302E-03
     6      (1,1,6)               1.36986302E-03
     7      (1,1,7)               1.36986302E-03
     8      (1,1,8)               1.36986302E-03
     9      (1,1,9)               1.36986302E-03
     10     (1,1,10)              1.36986302E-03
     11     (1,1,11)              1.36986302E-03
     12     (1,1,12)              1.36986302E-03
     13     (1,1,13)              1.36986302E-03
     14     (1,1,14)              1.36986302E-03
     15     (1,1,15)              1.36986302E-03
     16     (1,1,16)              1.36986302E-03
     17     (1,1,17)              1.36986302E-03
     18     (1,1,18)              1.36986302E-03
     19     (1,1,19)              1.36986302E-03
     20     (1,1,20)              1.36986302E-03
     21     (1,1,21)              1.36986302E-03
     22     (1,1,22)              1.36986302E-03
     23     (1,1,23)              1.36986302E-03
     24     (1,1,24)              1.36986302E-03
     25     (1,1,25)              1.36986302E-03
     26     (2,1,26)              1.36986302E-03
     27     (2,1,27)              1.36986302E-03
     28     (2,1,28)              1.36986302E-03
     29     (2,1,29)              1.36986302E-03
     30     (3,1,30)              1.36986302E-03
     31     (3,1,31)              1.36986302E-03
     32     (3,1,32)              1.36986302E-03
     33     (4,1,33)              1.36986302E-03
     34     (4,1,34)              1.36986302E-03
     35     (4,1,35)              1.36986302E-03
     36     (5,1,36)              1.36986302E-03
     37     (5,1,37)              1.36986302E-03
     38     (5,1,38)              1.36986302E-03
     39     (5,1,39)              1.36986302E-03
     40     (5,1,40)              1.36986302E-03
     41     (5,1,41)              1.36986302E-03
     42     (5,1,42)              1.36986302E-03
     43     (6,1,43)              1.36986302E-03
     44     (6,1,44)              1.36986302E-03
     45     (6,1,45)              1.36986302E-03
     46     (6,1,46)              1.36986302E-03
     47     (6,1,47)              1.36986302E-03
     48     (6,1,48)              1.36986302E-03
     49     (6,1,49)              1.36986302E-03
     50     (6,1,50)              0.0000000     
 -----------------------------------------------



1
  HEAD IN LAYER   1 AT END OF TIME STEP 365 IN STRESS PERIOD    1
  ---------------------------------------------------------------------------

                1               2               3               4               5               6               7               8               9              10
               11              12              13              14              15              16              17              18              19              20
               21              22              23              24              25              26              27              28              29              30
               31              32              33              34              35              36              37              38              39              40
               41              42              43              44              45              46              47              48              49              50
 ................................................................................................................................................................................................................................................................................................................................................................................................................................................................................................................................................................................................................................................................................................................................................................................................................................
   1      6.66552         6.66517         6.66446         6.66339         6.66197         6.66020         6.65807         6.65558         6.65274         6.64955    
          6.64600         6.64209         6.63783         6.63321         6.62824         6.62291         6.61722         6.61118         6.60479         6.59803    
          6.59092         6.58343         6.57528         6.56348         6.51962       -1.000000E+30   -1.000000E+30   -1.000000E+30   -1.000000E+30   -1.000000E+30
        -1.000000E+30   -1.000000E+30   -1.000000E+30   -1.000000E+30   -1.000000E+30   -1.000000E+30   -1.000000E+30   -1.000000E+30   -1.000000E+30   -1.000000E+30
        -1.000000E+30   -1.000000E+30   -1.000000E+30   -1.000000E+30   -1.000000E+30   -1.000000E+30   -1.000000E+30   -1.000000E+30   -1.000000E+30   -1.000000E+30
1
  HEAD IN LAYER   2 AT END OF TIME STEP 365 IN STRESS PERIOD    1
  ---------------------------------------------------------------------------

                1               2               3               4               5               6               7               8               9              10
               11              12              13              14              15              16              17              18              19              20
               21              22              23              24              25              26              27              28              29              30
               31              32              33              34              35              36              37              38              39              40
               41              42              43              44              45              46              47              48              49              50
 ................................................................................................................................................................................................................................................................................................................................................................................................................................................................................................................................................................................................................................................................................................................................................................................................................................
   1      6.66536         6.66501         6.66430         6.66323         6.66181         6.66004         6.65791         6.65542         6.65258         6.64939    
          6.64584         6.64193         6.63767         6.63305         6.62808         6.62275         6.61707         6.61102         6.60463         6.59787    
          6.59076         6.58327         6.57512         6.56333         6.51945         6.45950         6.39551         6.32825         6.25721       -1.000000E+30
        -1.000000E+30   -1.000000E+30   -1.000000E+30   -1.000000E+30   -1.000000E+30   -1.000000E+30   -1.000000E+30   -1.000000E+30   -1.000000E+30   -1.000000E+30
        -1.000000E+30   -1.000000E+30   -1.000000E+30   -1.000000E+30   -1.000000E+30   -1.000000E+30   -1.000000E+30   -1.000000E+30   -1.000000E+30   -1.000000E+30
1
  HEAD IN LAYER   3 AT END OF TIME STEP 365 IN STRESS PERIOD    1
  ---------------------------------------------------------------------------

                1               2               3               4               5               6               7               8               9              10
               11              12              13              14              15              16              17              18              19              20
               21              22              23              24              25              26              27              28              29              30
               31              32              33              34              35              36              37              38              39              40
               41              42              43              44              45              46              47              48              49              50
 ................................................................................................................................................................................................................................................................................................................................................................................................................................................................................................................................................................................................................................................................................................................................................................................................................................
   1      6.66521         6.66485         6.66414         6.66308         6.66166         6.65988         6.65775         6.65527         6.65243         6.64923    
          6.64568         6.64177         6.63751         6.63289         6.62792         6.62259         6.61691         6.61087         6.60447         6.59772    
          6.59060         6.58311         6.57498         6.56326         6.51930         6.45932         6.39531         6.32803         6.25704         6.18317    
          6.10578         6.02431       -1.000000E+30   -1.000000E+30   -1.000000E+30   -1.000000E+30   -1.000000E+30   -1.000000E+30   -1.000000E+30   -1.000000E+30
        -1.000000E+30   -1.000000E+30   -1.000000E+30   -1.000000E+30   -1.000000E+30   -1.000000E+30   -1.000000E+30   -1.000000E+30   -1.000000E+30   -1.000000E+30
1
  HEAD IN LAYER   4 AT END OF TIME STEP 365 IN STRESS PERIOD    1
  ---------------------------------------------------------------------------

                1               2               3               4               5               6               7               8               9              10
               11              12              13              14              15              16              17              18              19              20
               21              22              23              24              25              26              27              28              29              30
               31              32              33              34              35              36              37              38              39              40
               41              42              43              44              45              46              47              48              49              50
 ................................................................................................................................................................................................................................................................................................................................................................................................................................................................................................................................................................................................................................................................................................................................................................................................................................
   1      6.66505         6.66469         6.66398         6.66292         6.66150         6.65972         6.65759         6.65511         6.65227         6.64907    
          6.64552         6.64162         6.63736         6.63274         6.62776         6.62244         6.61675         6.61071         6.60431         6.59756    
          6.59045         6.58295         6.57484         6.56326         6.51920         6.45914         6.39512         6.32783         6.25685         6.18296    
          6.10554         6.02412         5.93918         5.85047         5.75658       -1.000000E+30   -1.000000E+30   -1.000000E+30   -1.000000E+30   -1.000000E+30
        -1.000000E+30   -1.000000E+30   -1.000000E+30   -1.000000E+30   -1.000000E+30   -1.000000E+30   -1.000000E+30   -1.000000E+30   -1.000000E+30   -1.000000E+30
1
  HEAD IN LAYER   5 AT END OF TIME STEP 365 IN STRESS PERIOD    1
  ---------------------------------------------------------------------------

                1               2               3               4               5               6               7               8               9              10
               11              12              13              14              15              16              17              18              19              20
               21              22              23              24              25              26              27              28              29              30
               31              32              33              34              35              36              37              38              39              40
               41              42              43              44              45              46              47              48              49              50
 ................................................................................................................................................................................................................................................................................................................................................................................................................................................................................................................................................................................................................................................................................................................................................................................................................................
   1      6.66489         6.66454         6.66383         6.66276         6.66134         6.65957         6.65744         6.65495         6.65211         6.64892    
          6.64537         6.64146         6.63720         6.63258         6.62761         6.62228         6.61660         6.61055         6.60416         6.59740    
          6.59029         6.58280         6.57471         6.56335         6.51913         6.45898         6.39493         6.32763         6.25667         6.18276    
          6.10532         6.02391         5.93895         5.85020         5.75641         5.65966         5.58294         5.56653         5.55260         5.53839    
          5.52383         5.50889       -1.000000E+30   -1.000000E+30   -1.000000E+30   -1.000000E+30   -1.000000E+30   -1.000000E+30   -1.000000E+30   -1.000000E+30
1
  HEAD IN LAYER   6 AT END OF TIME STEP 365 IN STRESS PERIOD    1
  ---------------------------------------------------------------------------

                1               2               3               4               5               6               7               8               9              10
               11              12              13              14              15              16              17              18              19              20
               21              22              23              24              25              26              27              28              29              30
               31              32              33              34              35              36              37              38              39              40
               41              42              43              44              45              46              47              48              49              50
 ................................................................................................................................................................................................................................................................................................................................................................................................................................................................................................................................................................................................................................................................................................................................................................................................................................
   1      6.66474         6.66438         6.66367         6.66261         6.66119         6.65942         6.65729         6.65480         6.65196         6.64876    
          6.64521         6.64131         6.63704         6.63243         6.62745         6.62213         6.61644         6.61040         6.60400         6.59725    
          6.59014         6.58265         6.57458         6.56352         6.51911         6.45882         6.39476         6.32744         6.25649         6.18257    
          6.10511         6.02371         5.93874         5.84995         5.75620         5.65939         5.58271         5.56637         5.55244         5.53823    
          5.52367         5.50873         5.49341         5.47774         5.46169         5.44527         5.42849         5.41132         5.39377         5.37500    
1
  HEAD IN LAYER   7 AT END OF TIME STEP 365 IN STRESS PERIOD    1
  ---------------------------------------------------------------------------

                1               2               3               4               5               6               7               8               9              10
               11              12              13              14              15              16              17              18              19              20
               21              22              23              24              25              26              27              28              29              30
               31              32              33              34              35              36              37              38              39              40
               41              42              43              44              45              46              47              48              49              50
 ................................................................................................................................................................................................................................................................................................................................................................................................................................................................................................................................................................................................................................................................................................................................................................................................................................
   1      6.66459         6.66423         6.66352         6.66246         6.66104         6.65926         6.65713         6.65465         6.65181         6.64861    
          6.64506         6.64115         6.63689         6.63227         6.62730         6.62197         6.61629         6.61025         6.60385         6.59709    
          6.58998         6.58250         6.57447         6.56378         6.51912         6.45868         6.39459         6.32726         6.25633         6.18238    
          6.10491         6.02351         5.93853         5.84971         5.75599         5.65908         5.58233         5.56620         5.55228         5.53807    
          5.52351         5.50857         5.49325         5.47758         5.46153         5.44511         5.42832         5.41116         5.39361         5.37500    
1
  HEAD IN LAYER   8 AT END OF TIME STEP 365 IN STRESS PERIOD    1
  ---------------------------------------------------------------------------

                1               2               3               4               5               6               7               8               9              10
               11              12              13              14              15              16              17              18              19              20
               21              22              23              24              25              26              27              28              29              30
               31              32              33              34              35              36              37              38              39              40
               41              42              43              44              45              46              47              48              49              50
 ................................................................................................................................................................................................................................................................................................................................................................................................................................................................................................................................................................................................................................................................................................................................................................................................................................
   1      6.66443         6.66408         6.66337         6.66230         6.66088         6.65911         6.65698         6.65449         6.65165         6.64846    
          6.64491         6.64100         6.63674         6.63212         6.62715         6.62182         6.61613         6.61009         6.60369         6.59694    
          6.58983         6.58235         6.57436         6.56412         6.51918         6.45854         6.39443         6.32708         6.25617         6.18220    
          6.10472         6.02333         5.93833         5.84949         5.75579         5.65872         5.58179         5.56602         5.55212         5.53791    
          5.52335         5.50841         5.49310         5.47742         5.46137         5.44495         5.42816         5.41100         5.39345         5.37500    
1
  HEAD IN LAYER   9 AT END OF TIME STEP 365 IN STRESS PERIOD    1
  ---------------------------------------------------------------------------

                1               2               3               4               5               6               7               8               9              10
               11              12              13              14              15              16              17              18              19              20
               21              22              23              24              25              26              27              28              29              30
               31              32              33              34              35              36              37              38              39              40
               41              42              43              44              45              46              47              48              49              50
 ................................................................................................................................................................................................................................................................................................................................................................................................................................................................................................................................................................................................................................................................................................................................................................................................................................
   1      6.66428         6.66393         6.66322         6.66215         6.66073         6.65896         6.65683         6.65434         6.65150         6.64831    
          6.64475         6.64085         6.63659         6.63197         6.62700         6.62167         6.61598         6.60994         6.60354         6.59679    
          6.58968         6.58220         6.57426         6.56454         6.51927         6.45841         6.39428         6.32692         6.25601         6.18204    
          6.10454         6.02315         5.93815         5.84927         5.75560         5.65830         5.58111         5.56585         5.55196         5.53776    
          5.52319         5.50825         5.49294         5.47726         5.46121         5.44480         5.42801         5.41084         5.39330         5.37500    
1
  HEAD IN LAYER  10 AT END OF TIME STEP 365 IN STRESS PERIOD    1
  ---------------------------------------------------------------------------

                1               2               3               4               5               6               7               8               9              10
               11              12              13              14              15              16              17              18              19              20
               21              22              23              24              25              26              27              28              29              30
               31              32              33              34              35              36              37              38              39              40
               41              42              43              44              45              46              47              48              49              50
 ................................................................................................................................................................................................................................................................................................................................................................................................................................................................................................................................................................................................................................................................................................................................................................................................................................
   1      6.66413         6.66378         6.66307         6.66200         6.66058         6.65881         6.65668         6.65419         6.65135         6.64815    
          6.64460         6.64070         6.63643         6.63182         6.62684         6.62151         6.61583         6.60979         6.60339         6.59664    
          6.58953         6.58205         6.57416         6.56506         6.51940         6.45829         6.39414         6.32677         6.25587         6.18188    
          6.10437         6.02299         5.93797         5.84907         5.75541         5.65784         5.58027         5.56566         5.55180         5.53760    
          5.52303         5.50809         5.49278         5.47710         5.46106         5.44464         5.42785         5.41069         5.39314         5.37500    
1
  HEAD IN LAYER  11 AT END OF TIME STEP 365 IN STRESS PERIOD    1
  ---------------------------------------------------------------------------

                1               2               3               4               5               6               7               8               9              10
               11              12              13              14              15              16              17              18              19              20
               21              22              23              24              25              26              27              28              29              30
               31              32              33              34              35              36              37              38              39              40
               41              42              43              44              45              46              47              48              49              50
 ................................................................................................................................................................................................................................................................................................................................................................................................................................................................................................................................................................................................................................................................................................................................................................................................................................
   1      6.66398         6.66363         6.66292         6.66185         6.66043         6.65866         6.65653         6.65404         6.65120         6.64800    
          6.64445         6.64055         6.63628         6.63167         6.62669         6.62136         6.61568         6.60964         6.60324         6.59649    
          6.58938         6.58191         6.57407         6.56566         6.51957         6.45818         6.39400         6.32662         6.25573         6.18173    
          6.10421         6.02283         5.93780         5.84888         5.75524         5.65732         5.57927         5.56548         5.55164         5.53744    
          5.52287         5.50794         5.49263         5.47695         5.46090         5.44448         5.42769         5.41053         5.39299         5.37500    
1
  HEAD IN LAYER  12 AT END OF TIME STEP 365 IN STRESS PERIOD    1
  ---------------------------------------------------------------------------

                1               2               3               4               5               6               7               8               9              10
               11              12              13              14              15              16              17              18              19              20
               21              22              23              24              25              26              27              28              29              30
               31              32              33              34              35              36              37              38              39              40
               41              42              43              44              45              46              47              48              49              50
 ................................................................................................................................................................................................................................................................................................................................................................................................................................................................................................................................................................................................................................................................................................................................................................................................................................
   1      6.66390         6.66355         6.66284         6.66177         6.66035         6.65858         6.65645         6.65396         6.65112         6.64793    
          6.64437         6.64047         6.63621         6.63159         6.62662         6.62129         6.61560         6.60956         6.60316         6.59641    
          6.58930         6.58183         6.57402         6.56603         6.51978         6.45807         6.39388         6.32648         6.25561         6.18159    
          6.10406         6.02268         5.93764         5.84870         5.75508         5.65676         5.57866         5.56538         5.55156         5.53736    
          5.52279         5.50785         5.49254         5.47687         5.46082         5.44440         5.42761         5.41045         5.39291         5.37500    
1
  HEAD IN LAYER  13 AT END OF TIME STEP 365 IN STRESS PERIOD    1
  ---------------------------------------------------------------------------

                1               2               3               4               5               6               7               8               9              10
               11              12              13              14              15              16              17              18              19              20
               21              22              23              24              25              26              27              28              29              30
               31              32              33              34              35              36              37              38              39              40
               41              42              43              44              45              46              47              48              49              50
 ................................................................................................................................................................................................................................................................................................................................................................................................................................................................................................................................................................................................................................................................................................................................................................................................................................
   1      6.66390         6.66354         6.66283         6.66177         6.66035         6.65857         6.65644         6.65396         6.65112         6.64792    
          6.64437         6.64046         6.63620         6.63158         6.62661         6.62128         6.61559         6.60955         6.60315         6.59640    
          6.58929         6.58182         6.57401         6.56606         6.51993         6.45797         6.39376         6.32636         6.25548         6.18146    
          6.10392         6.02254         5.93750         5.84854         5.75493         5.65632         5.57862         5.56538         5.55156         5.53736    
          5.52279         5.50785         5.49254         5.47686         5.46081         5.44439         5.42760         5.41044         5.39290         5.37500    
1
  HEAD IN LAYER  14 AT END OF TIME STEP 365 IN STRESS PERIOD    1
  ---------------------------------------------------------------------------

                1               2               3               4               5               6               7               8               9              10
               11              12              13              14              15              16              17              18              19              20
               21              22              23              24              25              26              27              28              29              30
               31              32              33              34              35              36              37              38              39              40
               41              42              43              44              45              46              47              48              49              50
 ................................................................................................................................................................................................................................................................................................................................................................................................................................................................................................................................................................................................................................................................................................................................................................................................................................
   1      6.66389         6.66354         6.66283         6.66176         6.66034         6.65857         6.65644         6.65395         6.65111         6.64791    
          6.64436         6.64046         6.63619         6.63158         6.62660         6.62127         6.61559         6.60955         6.60315         6.59639    
          6.58928         6.58182         6.57401         6.56607         6.52001         6.45788         6.39365         6.32624         6.25537         6.18134    
          6.10379         6.02241         5.93736         5.84838         5.75479         5.65601         5.57859         5.56537         5.55155         5.53735    
          5.52278         5.50784         5.49253         5.47685         5.46081         5.44439         5.42760         5.41043         5.39290         5.37500    
1
  HEAD IN LAYER  15 AT END OF TIME STEP 365 IN STRESS PERIOD    1
  ---------------------------------------------------------------------------

                1               2               3               4               5               6               7               8               9              10
               11              12              13              14              15              16              17              18              19              20
               21              22              23              24              25              26              27              28              29              30
               31              32              33              34              35              36              37              38              39              40
               41              42              43              44              45              46              47              48              49              50
 ................................................................................................................................................................................................................................................................................................................................................................................................................................................................................................................................................................................................................................................................................................................................................................................................................................
   1      6.66389         6.66353         6.66282         6.66176         6.66034         6.65856         6.65643         6.65395         6.65110         6.64791    
          6.64436         6.64045         6.63619         6.63157         6.62660         6.62127         6.61558         6.60954         6.60314         6.59639    
          6.58928         6.58181         6.57401         6.56608         6.52002         6.45779         6.39354         6.32613         6.25527         6.18122    
          6.10366         6.02229         5.93723         5.84824         5.75466         5.65581         5.57857         5.56536         5.55154         5.53734    
          5.52278         5.50784         5.49253         5.47685         5.46080         5.44438         5.42759         5.41043         5.39289         5.37500    
1
  HEAD IN LAYER  16 AT END OF TIME STEP 365 IN STRESS PERIOD    1
  ---------------------------------------------------------------------------

                1               2               3               4               5               6               7               8               9              10
               11              12              13              14              15              16              17              18              19              20
               21              22              23              24              25              26              27              28              29              30
               31              32              33              34              35              36              37              38              39              40
               41              42              43              44              45              46              47              48              49              50
 ................................................................................................................................................................................................................................................................................................................................................................................................................................................................................................................................................................................................................................................................................................................................................................................................................................
   1      6.66388         6.66353         6.66282         6.66175         6.66033         6.65856         6.65643         6.65394         6.65110         6.64791    
          6.64435         6.64045         6.63619         6.63157         6.62659         6.62126         6.61558         6.60954         6.60314         6.59639    
          6.58928         6.58181         6.57400         6.56608         6.51997         6.45771         6.39345         6.32603         6.25517         6.18112    
          6.10355         6.02218         5.93711         5.84811         5.75455         5.65574         5.57857         5.56536         5.55154         5.53734    
          5.52277         5.50783         5.49252         5.47684         5.46080         5.44438         5.42759         5.41042         5.39289         5.37500    
1
  HEAD IN LAYER  17 AT END OF TIME STEP 365 IN STRESS PERIOD    1
  ---------------------------------------------------------------------------

                1               2               3               4               5               6               7               8               9              10
               11              12              13              14              15              16              17              18              19              20
               21              22              23              24              25              26              27              28              29              30
               31              32              33              34              35              36              37              38              39              40
               41              42              43              44              45              46              47              48              49              50
 ................................................................................................................................................................................................................................................................................................................................................................................................................................................................................................................................................................................................................................................................................................................................................................................................................................
   1      6.66388         6.66352         6.66281         6.66175         6.66033         6.65855         6.65642         6.65394         6.65110         6.64790    
          6.64435         6.64044         6.63618         6.63156         6.62659         6.62126         6.61558         6.60954         6.60314         6.59638    
          6.58927         6.58181         6.57400         6.56607         6.51986         6.45763         6.39336         6.32593         6.25508         6.18102    
[...]
               21              22              23              24              25              26              27              28              29              30
               31              32              33              34              35              36              37              38              39              40
               41              42              43              44              45              46              47              48              49              50
 ................................................................................................................................................................................................................................................................................................................................................................................................................................................................................................................................................................................................................................................................................................................................................................................................................................
   1      6.66387         6.66351         6.66280         6.66174         6.66032         6.65854         6.65641         6.65393         6.65108         6.64789    
          6.64434         6.64043         6.63617         6.63155         6.62658         6.62125         6.61556         6.60952         6.60312         6.59637    
          6.58926         6.58179         6.57394         6.56503         6.51886         6.45737         6.39309         6.32564         6.25480         6.18072    
          6.10313         6.02176         5.93667         5.84762         5.75418         5.65703         5.58032         5.56543         5.55153         5.53732    
          5.52275         5.50782         5.49251         5.47683         5.46078         5.44436         5.42757         5.41041         5.39287         5.37500    
1
  HEAD IN LAYER  22 AT END OF TIME STEP *** IN STRESS PERIOD    2
  ---------------------------------------------------------------------------

                1               2               3               4               5               6               7               8               9              10
               11              12              13              14              15              16              17              18              19              20
               21              22              23              24              25              26              27              28              29              30
               31              32              33              34              35              36              37              38              39              40
               41              42              43              44              45              46              47              48              49              50
 ................................................................................................................................................................................................................................................................................................................................................................................................................................................................................................................................................................................................................................................................................................................................................................................................................................
   1      6.66386         6.66351         6.66280         6.66173         6.66031         6.65854         6.65641         6.65392         6.65108         6.64788    
          6.64433         6.64043         6.63616         6.63155         6.62657         6.62124         6.61556         6.60952         6.60312         6.59636    
          6.58925         6.58178         6.57391         6.56450         6.51862         6.45732         6.39304         6.32559         6.25475         6.18067    
          6.10307         6.02170         5.93661         5.84755         5.75414         5.65734         5.58119         5.56547         5.55153         5.53732    
          5.52275         5.50781         5.49250         5.47682         5.46077         5.44435         5.42756         5.41040         5.39287         5.37500    
1
  HEAD IN LAYER  23 AT END OF TIME STEP *** IN STRESS PERIOD    2
  ---------------------------------------------------------------------------

                1               2               3               4               5               6               7               8               9              10
               11              12              13              14              15              16              17              18              19              20
               21              22              23              24              25              26              27              28              29              30
               31              32              33              34              35              36              37              38              39              40
               41              42              43              44              45              46              47              48              49              50
 ................................................................................................................................................................................................................................................................................................................................................................................................................................................................................................................................................................................................................................................................................................................................................................................................................................
   1      6.66386         6.66350         6.66279         6.66173         6.66031         6.65853         6.65640         6.65392         6.65108         6.64788    
          6.64433         6.64042         6.63616         6.63154         6.62657         6.62124         6.61555         6.60951         6.60311         6.59636    
          6.58925         6.58178         6.57388         6.56406         6.51843         6.45728         6.39300         6.32555         6.25471         6.18062    
          6.10302         6.02166         5.93656         5.84750         5.75410         5.65761         5.58192         5.56551         5.55152         5.53731    
          5.52274         5.50781         5.49250         5.47682         5.46077         5.44435         5.42756         5.41040         5.39287         5.37500    
1
  HEAD IN LAYER  24 AT END OF TIME STEP *** IN STRESS PERIOD    2
  ---------------------------------------------------------------------------

                1               2               3               4               5               6               7               8               9              10
               11              12              13              14              15              16              17              18              19              20
               21              22              23              24              25              26              27              28              29              30
               31              32              33              34              35              36              37              38              39              40
               41              42              43              44              45              46              47              48              49              50
 ................................................................................................................................................................................................................................................................................................................................................................................................................................................................................................................................................................................................................................................................................................................................................................................................................................
   1      6.66385         6.66350         6.66279         6.66172         6.66030         6.65853         6.65640         6.65391         6.65107         6.64788    
          6.64432         6.64042         6.63616         6.63154         6.62656         6.62124         6.61555         6.60951         6.60311         6.59636    
          6.58925         6.58177         6.57385         6.56371         6.51827         6.45725         6.39297         6.32552         6.25468         6.18059    
          6.10298         6.02162         5.93652         5.84746         5.75407         5.65782         5.58249         5.56555         5.55152         5.53731    
          5.52274         5.50780         5.49249         5.47681         5.46077         5.44435         5.42756         5.41039         5.39286         5.37500    
1
  HEAD IN LAYER  25 AT END OF TIME STEP *** IN STRESS PERIOD    2
  ---------------------------------------------------------------------------

                1               2               3               4               5               6               7               8               9              10
               11              12              13              14              15              16              17              18              19              20
               21              22              23              24              25              26              27              28              29              30
               31              32              33              34              35              36              37              38              39              40
               41              42              43              44              45              46              47              48              49              50
 ................................................................................................................................................................................................................................................................................................................................................................................................................................................................................................................................................................................................................................................................................................................................................................................................................................
   1      6.66385         6.66349         6.66278         6.66172         6.66030         6.65852         6.65639         6.65391         6.65107         6.64787    
          6.64432         6.64042         6.63615         6.63154         6.62656         6.62123         6.61555         6.60951         6.60311         6.59635    
          6.58924         6.58177         6.57383         6.56345         6.51815         6.45722         6.39295         6.32549         6.25466         6.18056    
          6.10296         6.02159         5.93649         5.84742         5.75405         5.65797         5.58292         5.56557         5.55152         5.53731    
          5.52274         5.50780         5.49249         5.47681         5.46076         5.44434         5.42755         5.41039         5.39286         5.37500    
1
  HEAD IN LAYER  26 AT END OF TIME STEP *** IN STRESS PERIOD    2
  ---------------------------------------------------------------------------

                1               2               3               4               5               6               7               8               9              10
               11              12              13              14              15              16              17              18              19              20
               21              22              23              24              25              26              27              28              29              30
               31              32              33              34              35              36              37              38              39              40
               41              42              43              44              45              46              47              48              49              50
 ................................................................................................................................................................................................................................................................................................................................................................................................................................................................................................................................................................................................................................................................................................................................................................................................................................
   1      6.66385         6.66349         6.66278         6.66172         6.66030         6.65852         6.65639         6.65391         6.65107         6.64787    
          6.64432         6.64041         6.63615         6.63153         6.62656         6.62123         6.61555         6.60950         6.60311         6.59635    
          6.58924         6.58177         6.57382         6.56328         6.51807         6.45720         6.39293         6.32548         6.25464         6.18055    
          6.10294         6.02157         5.93647         5.84740         5.75404         5.65808         5.58321         5.56559         5.55152         5.53731    
          5.52274         5.50780         5.49249         5.47681         5.46076         5.44434         5.42755         5.41039         5.39286         5.37500    
1
  HEAD IN LAYER  27 AT END OF TIME STEP *** IN STRESS PERIOD    2
  ---------------------------------------------------------------------------

                1               2               3               4               5               6               7               8               9              10
               11              12              13              14              15              16              17              18              19              20
               21              22              23              24              25              26              27              28              29              30
               31              32              33              34              35              36              37              38              39              40
               41              42              43              44              45              46              47              48              49              50
 ................................................................................................................................................................................................................................................................................................................................................................................................................................................................................................................................................................................................................................................................................................................................................................................................................................
   1      6.66385         6.66349         6.66278         6.66172         6.66030         6.65852         6.65639         6.65391         6.65107         6.64787    
          6.64432         6.64041         6.63615         6.63153         6.62656         6.62123         6.61554         6.60950         6.60311         6.59635    
          6.58924         6.58177         6.57381         6.56319         6.51803         6.45719         6.39292         6.32547         6.25463         6.18054    
          6.10293         6.02156         5.93646         5.84739         5.75403         5.65813         5.58335         5.56560         5.55152         5.53731    
          5.52274         5.50780         5.49249         5.47681         5.46076         5.44434         5.42755         5.41039         5.39286         5.37500    

 HEAD WILL BE SAVED ON UNIT 1028 AT END OF TIME STEP 1095, STRESS PERIOD    2


  VOLUME BUDGET FOR ENTIRE MODEL AT END OF TIME STEP 1095, STRESS PERIOD   2
  ---------------------------------------------------------------------------------------------------

     CUMULATIVE VOLUME      L**3       RATES FOR THIS TIME STEP      L**3/T          PACKAGE NAME    
     ------------------                 ------------------------                     ----------------

           IN:                                      IN:
           ---                                      ---
              STO-SS =           0.0000                STO-SS =           0.0000     STORAGE                          
                RCHA =         490.0000                  RCHA =       6.7123E-02     RCH-1                            
                 CHD =           0.0000                   CHD =           0.0000     CHD-1                            

            TOTAL IN =         490.0000              TOTAL IN =       6.7123E-02

          OUT:                                     OUT:
          ----                                     ----
              STO-SS =           0.0000                STO-SS =           0.0000     STORAGE                          
                RCHA =           0.0000                  RCHA =           0.0000     RCH-1                            
                 CHD =         489.9998                   CHD =       6.7123E-02     CHD-1                            

           TOTAL OUT =         489.9998             TOTAL OUT =       6.7123E-02

            IN - OUT =       2.1687E-04              IN - OUT =       1.6312E-08

 PERCENT DISCREPANCY =           0.00     PERCENT DISCREPANCY =           0.00




         TIME SUMMARY AT END OF TIME STEP 1095 IN STRESS PERIOD    2
                    SECONDS     MINUTES      HOURS       DAYS        YEARS
                    -----------------------------------------------------------
   TIME STEP LENGTH 4.32000E+05  7200.0      120.00      5.0000     1.36893E-02
 STRESS PERIOD TIME 4.73040E+08 7.88400E+06 1.31400E+05  5475.0      14.990    
         TOTAL TIME 6.30720E+08 1.05120E+07 1.75200E+05  7300.0      19.986    


end timestep

