                                  MODFLOW-2005     
      U.S. GEOLOGICAL SURVEY MODULAR FINITE-DIFFERENCE GROUND-WATER FLOW MODEL
                       VERSION 1.6.01 3/4/2009, with FMP2

 LIST FILE: p09_mf.list
                         UNIT    2

 OPENING p09_mf.dis
 FILE TYPE:DIS   UNIT   11   STATUS:OLD    
 FORMAT:FORMATTED              ACCESS:SEQUENTIAL          

 OPENING p09_mf.bas
 FILE TYPE:BAS6   UNIT   13   STATUS:OLD    
 FORMAT:FORMATTED              ACCESS:SEQUENTIAL          

 OPENING p09_mf.lpf
 FILE TYPE:LPF   UNIT   15   STATUS:OLD    
 FORMAT:FORMATTED              ACCESS:SEQUENTIAL          

 OPENING p09_mf.wel
 FILE TYPE:WEL   UNIT   20   STATUS:OLD    
 FORMAT:FORMATTED              ACCESS:SEQUENTIAL          

 OPENING p09_mf.pcg
 FILE TYPE:PCG   UNIT   27   STATUS:OLD    
 FORMAT:FORMATTED              ACCESS:SEQUENTIAL          

 OPENING p09_mf.lmt6
 FILE TYPE:LMT6   UNIT   30   STATUS:OLD    
 FORMAT:FORMATTED              ACCESS:SEQUENTIAL          

 BAS -- BASIC PACKAGE, VERSION 7, 5/2/2005 INPUT READ FROM UNIT   13

 DISCRETIZATION INPUT DATA READ FROM UNIT   11
 # DIS package for MODFLOW-2005 generated by Flopy 3.9.1
    1 LAYERS        18 ROWS        14 COLUMNS
    1 STRESS PERIOD(S) IN SIMULATION
 MODEL TIME UNIT IS DAYS
 MODEL LENGTH UNIT IS METERS
  Confining bed flag for each layer:
   0

                     DELR =   100.000    

                     DELC =   100.000    

 TOP ELEVATION OF LAYER 1 =   0.00000    

   MODEL LAYER BOTTOM EL. =  -10.0000     FOR LAYER   1


 STRESS PERIOD     LENGTH       TIME STEPS     MULTIPLIER FOR DELT    SS FLAG
 ----------------------------------------------------------------------------
        1         1.000000          1                    1.000         SS

 STEADY-STATE SIMULATION



 
 # BAS6 package for MODFLOW-2005 generated by Flopy 3.9.1                        
 THE FREE FORMAT OPTION HAS BEEN SELECTED



                     BOUNDARY ARRAY FOR LAYER   1
 READING ON UNIT   13 WITH FORMAT: (14I10)             

 AQUIFER HEAD WILL BE SET TO  -999.99     AT ALL NO-FLOW NODES (IBOUND=0).



                       INITIAL HEAD FOR LAYER   1
 READING ON UNIT   13 WITH FORMAT: (14E15.6)           

 DEFAULT OUTPUT CONTROL
 THE FOLLOWING OUTPUT COMES AT THE END OF EACH STRESS PERIOD:
 TOTAL VOLUMETRIC BUDGET
           HEAD

 LPF -- LAYER-PROPERTY FLOW PACKAGE, VERSION 7, 5/2/2005
         INPUT READ FROM UNIT   15
 # LPF package for MODFLOW-2005 generated by Flopy 3.9.1
 HEAD AT CELLS THAT CONVERT TO DRY= -1.00000E+30
 No named parameters

   LAYER FLAGS:
 LAYER       LAYTYP        LAYAVG         CHANI        LAYVKA        LAYWET
 ---------------------------------------------------------------------------
    1             0             0     1.000E+00             0             0

   INTERPRETATION OF LAYER FLAGS:
                        INTERBLOCK     HORIZONTAL    DATA IN
         LAYER TYPE   TRANSMISSIVITY   ANISOTROPY   ARRAY VKA   WETTABILITY
 LAYER      (LAYTYP)      (LAYAVG)       (CHANI)      (LAYVKA)      (LAYWET)
 ---------------------------------------------------------------------------
    1      CONFINED      HARMONIC     1.000E+00    VERTICAL K  NON-WETTABLE

 WETTING CAPABILITY IS NOT ACTIVE IN ANY LAYER



              HYD. COND. ALONG ROWS FOR LAYER   1
 READING ON UNIT   15 WITH FORMAT: (14E15.6)           

      VERTICAL HYD. COND. =   1.00000     FOR LAYER   1

 WEL -- WELL PACKAGE, VERSION 7, 5/2/2005 INPUT READ FROM UNIT   20
 # WEL package for MODFLOW-2005 generated by Flopy 3.9.1
 No named parameters
 MAXIMUM OF      2 ACTIVE WELLS AT ONE TIME


     0 Well parameters

 PCG -- CONJUGATE-GRADIENT SOLUTION PACKAGE, VERSION 7, 5/2/2005
 # PCG package for MODFLOW-2005 generated by Flopy 3.9.1
 MAXIMUM OF     50 CALLS OF SOLUTION ROUTINE
 MAXIMUM OF     30 INTERNAL ITERATIONS PER CALL TO SOLUTION ROUTINE
 MATRIX PRECONDITIONING TYPE :    1



                                    SOLUTION BY THE CONJUGATE-GRADIENT METHOD
                                   -------------------------------------------
                    MAXIMUM NUMBER OF CALLS TO PCG ROUTINE =       50
                        MAXIMUM ITERATIONS PER CALL TO PCG =       30
                               MATRIX PRECONDITIONING TYPE =        1
        RELAXATION FACTOR (ONLY USED WITH PRECOND. TYPE 1) =    0.10000E+01
 PARAMETER OF POLYNOMIAL PRECOND. = 2 (2) OR IS CALCULATED :        0
                         HEAD CHANGE CRITERION FOR CLOSURE =    0.10000E-04
                     RESIDUAL CHANGE CRITERION FOR CLOSURE =    0.10000E-04
            PCG HEAD AND RESIDUAL CHANGE PRINTOUT INTERVAL =      999
     PRINTING FROM SOLVER IS LIMITED(1) OR SUPPRESSED (>1) =        3
                            STEADY-STATE DAMPING PARAMETER =    0.10000E+01
                               TRANSIENT DAMPING PARAMETER =    0.10000E+01
1
                            STRESS PERIOD NO.    1, LENGTH =   1.000000    
                            -----------------------------------------------

                              NUMBER OF TIME STEPS =     1

                               MULTIPLIER FOR DELT =     1.000

                            INITIAL TIME STEP SIZE =   1.000000    

 WELL NO.  LAYER   ROW   COL   STRESS RATE         
 --------------------------------------------------
      1      1      4      7      0.1000E-02
      2      1     11      7     -0.1890E-01

      2 WELLS
 
 SOLVING FOR HEAD 


 ***Link-MT3DMS Package v7***
 OPENING LINK-MT3DMS OUTPUT FILE: mt3d_link.ftl                                                                                                                                                                                           
 ON UNIT NUMBER:    54
 FILE TYPE: UNFORMATTED
 HEADER OPTION: EXTENDED
 ***Link-MT3DMS Package v7***


 SAVING SATURATED THICKNESS AND FLOW TERMS ON UNIT   54 FOR MT3DMS
 BY THE LINK-MT3DMS PACKAGE V7 AT TIME STEP    1, STRESS PERIOD    1

1
              HEAD IN LAYER   1 AT END OF TIME STEP   1 IN STRESS PERIOD    1
  ---------------------------------------------------------------------------

            1           2           3           4           5           6           7           8           9          10
           11          12          13          14
 ........................................................................................................................
   1    250.0       250.0       250.0       250.0       250.0       250.0       250.0       250.0       250.0       250.0    
        250.0       250.0       250.0       250.0    
   2    242.7       243.3       244.0       244.5       244.5       244.1       243.1       241.7       240.1       238.8    
        237.8       237.2       236.8       236.7    
   3    234.8       236.6       238.3       239.4       239.6       238.7       236.7       233.6       230.0       227.2    
        225.3       224.1       223.5       223.2    
   4    225.3       229.7       233.3       235.3       235.7       234.4       231.4       226.0       219.2       214.7    
        212.0       210.6       209.8       209.5    
   5    211.3       223.6       229.9       232.9       233.4       231.8       227.7       219.9       206.0       200.3    
        197.6       196.3       195.6       195.4    
   6    184.9       196.7       204.6       207.6       208.3       207.3       204.1       196.1       184.5       182.9    
        181.9       181.3       181.1       181.0    
   7    158.5       158.7       159.0       159.3       159.9       160.6       161.7       163.5       164.7       165.1    
        165.6       166.0       166.4       166.6    
   8    132.2       120.6       113.2       110.9       111.2       113.5       118.8       130.1       144.5       147.1    
        149.3       150.9       151.9       152.4    
   9    105.8       93.68       87.77       85.42       85.71       88.51       94.36       104.7       121.7       129.4    
        133.7       136.3       137.9       138.6    
  10    91.63       87.40       84.15       82.73       83.14       85.40       89.79       98.14       108.1       115.1    
        119.8       122.8       124.7       125.5    
  11    81.66       80.13       78.71       78.19       78.75       80.16       81.24       89.95       97.41       103.3    
        107.6       110.6       112.4       113.3    
  12    73.22       72.75       72.38       72.57       73.50       75.24       77.90       83.00       88.31       92.96    
        96.67       99.39       101.2       102.0    
  13    65.26       65.27       65.51       66.19       67.46       69.40       72.13       75.85       79.86       83.59    
        86.74       89.17       90.81       91.63    
  14    57.28       57.56       58.18       59.22       60.74       62.77       65.35       68.42       71.69       74.81    
        77.54       79.73       81.26       82.05    
  15    49.02       49.51       50.44       51.78       53.50       55.61       58.07       60.81       63.65       66.41    
        68.89       70.95       72.45       73.25    
  16    40.27       41.02       42.30       43.94       45.88       48.09       50.51       53.08       55.71       58.28    
        60.66       62.72       64.33       65.26    
  17    30.76       32.02       33.78       35.81       38.01       40.35       42.79       45.30       47.84       50.34    
        52.74       54.96       56.87       58.21    
  18    20.00       22.50       25.00       27.50       30.00       32.50       35.00       37.50       40.00       42.50    
        45.00       47.50       50.00       52.50    
1
  VOLUMETRIC BUDGET FOR ENTIRE MODEL AT END OF TIME STEP  1 IN STRESS PERIOD   1
  ------------------------------------------------------------------------------

     CUMULATIVE VOLUMES      L**3       RATES FOR THIS TIME STEP      L**3/T
     ------------------                 ------------------------

           IN:                                      IN:
           ---                                      ---
             STORAGE =           0.0000               STORAGE =           0.0000
       CONSTANT HEAD =           0.1834         CONSTANT HEAD =           0.1834
               WELLS =       1.0000E-03                 WELLS =       1.0000E-03

            TOTAL IN =           0.1844              TOTAL IN =           0.1844

          OUT:                                     OUT:
          ----                                     ----
             STORAGE =           0.0000               STORAGE =           0.0000
       CONSTANT HEAD =           0.1655         CONSTANT HEAD =           0.1655
               WELLS =       1.8900E-02                 WELLS =       1.8900E-02

           TOTAL OUT =           0.1844             TOTAL OUT =           0.1844

            IN - OUT =      -2.9802E-08              IN - OUT =      -2.9802E-08

 PERCENT DISCREPANCY =           0.00     PERCENT DISCREPANCY =           0.00






          TIME SUMMARY AT END OF TIME STEP   1 IN STRESS PERIOD    1
                    SECONDS     MINUTES      HOURS       DAYS        YEARS
                    -----------------------------------------------------------
   TIME STEP LENGTH  86400.      1440.0      24.000      1.0000     2.73785E-03
 STRESS PERIOD TIME  86400.      1440.0      24.000      1.0000     2.73785E-03
         TOTAL TIME  86400.      1440.0      24.000      1.0000     2.73785E-03
1

 Run end date and time (yyyy/mm/dd hh:mm:ss): 2025/02/28 16:36:08
 Elapsed run time:  0.015 Seconds

