                                   MODFLOW 6
                U.S. GEOLOGICAL SURVEY MODULAR HYDROLOGIC MODEL
                             TRANSPORT MODEL (GWT)
                            VERSION 6.6.0 12/20/2024

   MODFLOW 6 compiled Dec 31 2024 17:10:16 with Intel(R) Fortran Intel(R) 64
   Compiler Classic for applications running on Intel(R) 64, Version 2021.7.0
                             Build 20220726_000000

This software has been approved for release by the U.S. Geological 
Survey (USGS). Although the software has been subjected to rigorous 
review, the USGS reserves the right to update the software as needed 
pursuant to further analysis and review. No warranty, expressed or 
implied, is made by the USGS or the U.S. Government as to the 
functionality of the software and related material nor shall the 
fact of release constitute any such warranty. Furthermore, the 
software is released on condition that neither the USGS nor the U.S. 
Government shall be held liable for any damages resulting from its 
authorized or unauthorized use. Also refer to the USGS Water 
Resources Software User Rights Notice for complete use, copyright, 
and distribution information.


As a work of the United States Government, this USGS product is 
in the public domain within the United States. You can copy, 
modify, distribute, and perform the work, even for commercial 
purposes, all without asking permission. Additionally, USGS 
waives copyright and related rights in the work worldwide 
through CC0 1.0 Universal Public Domain Dedication 
(https://creativecommons.org/publicdomain/zero/1.0/).

The following GNU Lesser General Public License (LGPL) libraries
are used in this USGS product:

    SPARSKIT version 2.0
      ilut, luson, and qsplit 
      (https://www-users.cse.umn.edu/~saad/software/SPARSKIT/)

    RCM - Reverse Cuthill McKee Ordering
      (https://people.math.sc.edu/Burkardt/f_src/rcm/rcm.html)

    BLAS - Basic Linear Algebra Subprograms Level 1
      (https://people.math.sc.edu/Burkardt/f_src/blas1_d/blas1_d.html)

    SPARSEKIT - Sparse Matrix Utility Package
      amux, dperm, dvperm, rperm, and cperm
      (https://people.sc.fsu.edu/~jburkardt/f77_src/sparsekit/sparsekit.html)

The following BSD-3 License libraries are used in this USGS product:

    Modern Fortran DAG Library
      Copyright (c) 2018, Jacob Williams
      All rights reserved.
      (https://github.com/jacobwilliams/daglib)

MODFLOW 6 compiler options: /O2 /heap-arrays:0 /fpe:0 /traceback /nologo /fpp
/c /module:win64\mod_mf6\ /object:win64\obj_mf6\

System command used to initiate simulation:
C:\Users\gross.DESKTOP-AIRQM2M\anaconda3\Scripts\mf6.exe

MODFLOW was compiled using uniform precision.

Real Variables
  KIND: 8
  TINY (smallest non-zero value):    2.225074-308
  HUGE (largest value):    1.797693+308
  PRECISION: 15
  SIZE IN BITS: 64

Integer Variables
  KIND: 4
  HUGE (largest value): 2147483647
  SIZE IN BITS: 32

Long Integer Variables
  KIND: 8
  HUGE (largest value): 9223372036854775807
  SIZE IN BITS: 64

Logical Variables
  KIND: 4
  SIZE IN BITS: 32
 
 NAMEFILE OPTIONS:
    FLOWS WILL BE SAVED TO BUDGET FILE SPECIFIED IN OUTPUT CONTROL
 END NAMEFILE OPTIONS:

 DIS -- STRUCTURED GRID DISCRETIZATION PACKAGE, VERSION 2 : 3/27/2014 - INPUT READ FROM MEMPATH: __INPUT__/GWT_P03-MF6/DIS                         


 DSP-- DISPERSION PACKAGE, VERSION 1, 1/24/2018 INPUT READ FROM MEMPATH: __INPUT__/GWT_P03-MF6/DSP                         


 Setting Discretization Options
 End Setting Discretization Options

 Setting Discretization Dimensions
    NLAY = 1
    NROW = 31
    NCOL = 46
 End Setting Discretization Dimensions

 Setting Discretization Griddata
    DELR set from input file
    DELC set from input file
    TOP set from input file
    BOTM set from input file
    IDOMAIN set from input file
 End Setting Discretization Griddata


 FMI -- FLOW MODEL INTERFACE,' VERSION 2, 8/17/2023
  FLOWS PROVIDED BY A GWF MODEL IN THIS SIMULATION

 ADV-- ADVECTION PACKAGE, VERSION 1, 8/25/2017 INPUT READ FROM UNIT 1015


 # File generated by Flopy version 3.9.1 on 02/27/2025 at 15:39:39.
 PROCESSING ADVECTION OPTIONS
    ADVECTION WEIGHTING SCHEME HAS BEEN SET TO: UPSTREAM
 END OF ADVECTION OPTIONS
 Setting DSP Options
    XT3D formulation [0=INACTIVE, 1=ACTIVE, 3=ACTIVE RHS] set to: 0
 End Setting DSP Options

 Setting DSP Griddata
    ALH set from input file
    ATH1 set from input file
 End Setting DSP Griddata


 CNC   -- CNC PACKAGE, VERSION 8, 2/22/2014 INPUT READ FROM MEMPATH: __INPUT__/GWT_P03-MF6/CNC-1                       

 PROCESSING CNC BASE OPTIONS
 END OF CNC BASE OPTIONS

 PROCESSING CNC BASE DIMENSIONS
    MAXBOUND =       1
 END OF CNC BASE DIMENSIONS
    STRT set from input file

 MST -- MOBILE STORAGE AND TRANSFER PACKAGE, VERSION 1, 7/29/2020 INPUT READ FROM UNIT 1014


 # File generated by Flopy version 3.9.1 on 02/27/2025 at 15:39:39.
 PROCESSING MOBILE STORAGE AND TRANSFER OPTIONS
 END OF MOBILE STORAGE AND TRANSFER OPTIONS
 PROCESSING GRIDDATA

   MOBILE DOMAIN POROSITY =  0.3000000    
 END PROCESSING GRIDDATA

 SSM -- SOURCE-SINK MIXING PACKAGE, VERSION 1, 8/25/2017 INPUT READ FROM UNIT 1017


 # File generated by Flopy version 3.9.1 on 02/27/2025 at 15:39:39.
 PROCESSING SSM OPTIONS
 END OF SSM OPTIONS
 PROCESSING SOURCES
 AUX SOURCE DETECTED.
    USING AUX COLUMN 1 IN PACKAGE WEL-1
 END PROCESSING SOURCES
 OPTIONAL FILEINPUT BLOCK NOT FOUND.  CONTINUING.
      THE LAST TIME STEP WILL BE PRINTED
      THE LAST TIME STEP WILL BE PRINTED
 # File generated by Flopy version 3.9.1 on 02/27/2025 at 15:39:39.

 PROCESSING OC OPTIONS

    BUDGET INFORMATION WILL BE WRITTEN TO:
      UNIT NUMBER: 1028
      FILE NAME: gwt_p03-mf6.cbc

 OPENED gwt_p03-mf6.cbc
 FILE TYPE:DATA(BINARY)   UNIT 1028   STATUS:REPLACE             
 FORMAT:UNFORMATTED            ACCESS:STREAM              
 ACTION:READWRITE           

    CONCENTRATION INFORMATION WILL BE WRITTEN TO:
      UNIT NUMBER: 1029
      FILE NAME: gwt_p03-mf6.UCN

 OPENED gwt_p03-mf6.UCN
 FILE TYPE:DATA(BINARY)   UNIT 1029   STATUS:REPLACE             
 FORMAT:UNFORMATTED            ACCESS:STREAM              
 ACTION:READWRITE           

 END OF OC OPTIONS

start timestep kper="1" kstp="1" mode="normal"


 BEGIN READING OUTPUT CONTROL FOR STRESS PERIOD 1
      THE LAST TIME STEP WILL BE SAVED
      THE LAST TIME STEP WILL BE SAVED
      THE LAST TIME STEP WILL BE PRINTED
      THE LAST TIME STEP WILL BE PRINTED

 END READING OUTPUT CONTROL FOR STRESS PERIOD 1

end timestep


start timestep kper="1" kstp="2" mode="normal"

 UBDSV1 SAVING  STORAGE-AQUEOUS ON UNIT   1028 AT TIME STEP      2, STRESS PERIOD      1
 UBDSV1 SAVING     FLOW-JA-FACE ON UNIT   1028 AT TIME STEP      2, STRESS PERIOD      1
 UBDSV06 SAVING  SOURCE-SINK MIX IN MODEL GWT_P03-MF6      PACKAGE GWT_P03-MF6     CONNECTED TO MODEL GWT_P03-MF6      PACKAGE SSM              ON UNIT   1028 AT TIME STEP      2, STRESS PERIOD      1
 UBDSV06 SAVING              CNC IN MODEL GWT_P03-MF6      PACKAGE GWT_P03-MF6     CONNECTED TO MODEL GWT_P03-MF6      PACKAGE CNC-1            ON UNIT   1028 AT TIME STEP      2, STRESS PERIOD      1
1
  CONCENTRATION IN LAYER   1 AT END OF TIME STEP   2 IN STRESS PERIOD    1
  ---------------------------------------------------------------------------

                1               2               3               4               5               6               7               8               9              10
               11              12              13              14              15              16              17              18              19              20
               21              22              23              24              25              26              27              28              29              30
               31              32              33              34              35              36              37              38              39              40
               41              42              43              44              45              46
 ................................................................................................................................................................................................................................................................................................................................................................................................................................................................................................................................................................................................................................................................................................................................................................
   1      0.00000        2.781174E-51    8.342566E-50    2.402889E-48    6.621139E-47    1.735595E-45    4.298327E-44    9.972327E-43    2.144285E-41    4.214390E-40
         7.432254E-39    1.146269E-37    1.488902E-36    1.533962E-35    1.124332E-34    4.546206E-34    2.270619E-34    6.204487E-35    9.937082E-36    1.178509E-36
         1.139406E-37    9.447812E-39    6.954208E-40    4.658804E-41    2.893491E-42    1.689234E-43    9.367821E-45    4.975010E-46    2.546384E-47    1.262509E-48
         6.088492E-50    2.865559E-51    1.319905E-52    5.963782E-54    2.648514E-55    1.158013E-56    4.992081E-58    2.124464E-59    8.934888E-61    3.717194E-62
         1.531062E-63    6.248063E-65    2.527907E-66    1.014606E-67    4.042104E-69    1.657125E-70
   2     9.323887E-51    2.907889E-49    9.016624E-48    2.690709E-46    7.691716E-45    2.094638E-43    5.397484E-42    1.305071E-40    2.929801E-39    6.023418E-38
         1.113478E-36    1.804122E-35    2.467639E-34    2.683436E-33    2.080047E-32    8.885051E-32    4.202509E-32    1.087645E-32    1.670120E-33    1.910187E-34
         1.791214E-35    1.448150E-36    1.043719E-37    6.868635E-39    4.200932E-40    2.419694E-41    1.325860E-42    6.965502E-44    3.530179E-45    1.734461E-46
         8.294380E-48    3.873216E-49    1.770937E-50    7.946258E-52    3.505769E-53    1.523266E-54    6.527569E-56    2.762101E-57    1.155318E-58    4.781258E-60
         1.959380E-61    7.956961E-63    3.204129E-64    1.280144E-65    5.077387E-67    2.069227E-68
   3     9.162044E-49    2.958297E-47    9.500394E-46    2.940102E-44    8.728277E-43    2.472211E-41    6.636765E-40    1.674814E-38    3.931739E-37    8.470798E-36
         1.644743E-34    2.806076E-33    4.052179E-32    4.665110E-31    3.837586E-30    1.739020E-29    7.757076E-30    1.894716E-30    2.783290E-31    3.064991E-32
         2.783407E-33    2.191067E-34    1.544351E-35    9.973142E-37    6.001251E-38    3.407767E-39    1.843787E-40    9.576809E-42    4.803625E-43    2.337823E-44
         1.108195E-45    5.132784E-47    2.328948E-48    1.037508E-49    4.546283E-51    1.962662E-52    8.358979E-54    3.516372E-55    1.462581E-56    6.020365E-58
         2.454438E-59    9.917825E-61    3.974578E-62    1.580601E-63    6.240925E-65    2.528136E-66
   4     8.645392E-47    2.893486E-45    9.635827E-44    3.096592E-42    9.560571E-41    2.820921E-39    7.902998E-38    2.085372E-36    5.129962E-35    1.160875E-33
         2.373595E-32    4.276348E-31    6.541003E-30    8.001737E-29    7.015228E-28    3.389610E-27    1.418765E-27    3.256502E-28    4.563631E-29    4.828326E-30
         4.238084E-31    3.242345E-32    2.231175E-33    1.411747E-34    8.346628E-36    4.666875E-37    2.490573E-38    1.277732E-39    6.337326E-41    3.052596E-42
         1.433286E-43    6.579842E-45    2.960837E-46    1.308736E-47    5.692593E-49    2.440381E-50    1.032454E-51    4.315679E-53    1.784143E-54    7.301229E-56
         2.959963E-57    1.189601E-58    4.742519E-60    1.876503E-61    7.373161E-63    2.967736E-64
   5     7.797352E-45    2.708352E-43    9.365139E-42    3.129709E-40    1.006494E-38    3.098865E-37    9.076919E-36    2.509563E-34    6.483712E-33    1.544978E-31
         3.335951E-30    6.367065E-29    1.035313E-27    1.351416E-26    1.268850E-25    6.575104E-25    2.567661E-25    5.511211E-26    7.344512E-27    7.447433E-28
         6.304420E-29    4.677733E-30    3.136510E-31    1.941040E-32    1.125735E-33    6.188862E-35    3.253495E-36    1.646674E-37    8.067209E-39    3.842178E-40
         1.785264E-41    8.116362E-43    3.619155E-44    1.586084E-45    6.843389E-47    2.911299E-48    1.222726E-49    5.075529E-51    2.084326E-52    8.475262E-54
         3.414853E-55    1.364312E-56    5.408016E-58    2.128031E-59    8.316815E-61    3.324700E-62
   6     6.683821E-43    2.412562E-41    8.674573E-40    3.019280E-38    1.013088E-36    3.260774E-35    1.000617E-33    2.905121E-32    7.902471E-31    1.988368E-29
         4.548154E-28    9.229131E-27    1.601901E-25    2.241775E-24    2.266701E-23    1.268217E-22    4.590052E-23    9.161306E-24    1.156687E-24    1.120976E-25
         9.128667E-27    6.553288E-28    4.271968E-29    2.580322E-30    1.465187E-31    7.906269E-33    4.087792E-34    2.038144E-35    9.849705E-37    4.632727E-38
         2.127798E-39    9.569892E-41    4.224452E-42    1.833865E-43    7.841850E-45    3.307818E-46    1.378067E-47    5.676352E-49    2.313900E-50    9.342299E-52
         3.738636E-53    1.483898E-54    5.844903E-56    2.285905E-57    8.880999E-59    3.524039E-60
   7     5.407941E-41    2.031431E-39    7.606810E-38    2.762175E-36    9.687809E-35    3.266258E-33    1.052367E-31    3.216353E-30    9.236849E-29    2.461685E-27
         5.985965E-26    1.296621E-24    2.413539E-23    3.640983E-22    3.990357E-21    2.429692E-20    8.086824E-21    1.491149E-21    1.775896E-22    1.639476E-23
         1.280651E-24    8.870553E-26    5.607107E-27    3.297405E-28    1.828999E-29    9.666667E-31    4.905970E-32    2.405351E-33    1.144770E-34    5.309114E-36
         2.406925E-37    1.069487E-38    4.667791E-40    2.004812E-41    8.486849E-43    3.545831E-44    1.463852E-45    5.977600E-47    2.416549E-48    9.679337E-50
         3.843969E-51    1.514495E-52    5.923126E-54    2.300621E-55    8.878842E-57    3.494758E-58
   8     4.095201E-39    1.603376E-37    6.263196E-36    2.377013E-34    8.731805E-33    3.090535E-31    1.048030E-29    3.380989E-28    1.028211E-26    2.912445E-25
         7.558432E-24    1.755668E-22    3.523455E-21    5.766220E-20    6.902152E-19    4.617015E-18    1.400080E-18    2.366886E-19    2.645006E-20    2.316950E-21
         1.730171E-22    1.152639E-23    7.043214E-25    4.020880E-26    2.172616E-27    1.121768E-28    5.574786E-30    2.681677E-31    1.254239E-32    5.724245E-34
         2.556839E-35    1.120471E-36    4.827265E-38    2.048144E-39    8.570831E-41    3.541956E-42    1.447111E-43    5.850844E-45    2.342938E-46    9.299365E-48
         3.660868E-49    1.430242E-50    5.548285E-52    2.138151E-53    8.189239E-55    3.194453E-56
   9     2.871383E-37    1.173752E-35    4.791749E-34    1.904526E-32    7.343642E-31    2.735252E-29    9.788738E-28    3.343283E-26    1.080337E-24    3.264942E-23
         9.083485E-22    2.274329E-20    4.951587E-19    8.856342E-18    1.168437E-16    8.685752E-16    2.372749E-16    3.644114E-17    3.796610E-18    3.140606E-19
         2.232980E-20    1.425444E-21    8.389820E-23    4.633459E-24    2.430697E-25    1.222128E-26    5.929221E-28    2.790296E-29    1.279022E-30    5.729748E-32
         2.515438E-33    1.084677E-34    4.602828E-36    1.925259E-37    7.948659E-39    3.243072E-40    1.308960E-41    5.231125E-43    2.071609E-44    8.135212E-46
         3.169923E-47    1.226276E-48    4.711983E-50    1.799240E-51    6.830121E-53    2.637246E-54
  10     1.838400E-35    7.860588E-34    3.360525E-32    1.401902E-30    5.687881E-29    2.235429E-27    8.467989E-26    3.072289E-24    1.058883E-22    3.429245E-21
         1.027967E-19    2.791063E-18    6.639803E-17    1.309469E-15    1.925406E-14    1.613513E-13    3.915113E-14    5.402283E-15    5.205100E-16    4.041812E-17
         2.722767E-18    1.658045E-19    9.359773E-21    4.979777E-22    2.525999E-23    1.231882E-24    5.812312E-26    2.666135E-27    1.193536E-28    5.230592E-30
         2.249703E-31    9.516300E-33    3.965908E-34    1.630780E-35    6.624901E-37    2.661775E-38    1.058731E-39    4.172379E-41    1.630364E-42    6.320765E-44
         2.432703E-45    9.299643E-47    3.532658E-48    1.334060E-49    5.010232E-51    1.911689E-52
  11     1.054982E-33    4.727997E-32    2.121453E-30    9.311685E-29    3.986102E-27    1.658032E-25    6.670625E-24    2.580680E-22    9.527936E-21    3.323145E-19
         1.079615E-17    3.200931E-16    8.391806E-15    1.844455E-13    3.064534E-12    2.948966E-11    6.241482E-12    7.631595E-13    6.729681E-14    4.867465E-15
         3.087344E-16    1.783597E-17    9.606970E-19    4.899469E-20    2.391332E-21    1.125730E-22    5.141162E-24    2.288073E-25    9.958517E-27    4.250779E-28
         1.783598E-29    7.370765E-31    3.004776E-32    1.210001E-33    4.818790E-35    1.899778E-36    7.420917E-38    2.874299E-39    1.104627E-40    4.214688E-42
         1.597382E-43    6.016574E-45    2.253043E-46    8.391391E-48    3.109549E-49    1.169563E-50
  12     5.287372E-32    2.489269E-30    1.175200E-28    5.442329E-27    2.465575E-25    1.089128E-23    4.671693E-22    1.935615E-20    7.693587E-19    2.906653E-17
         1.030429E-15    3.363724E-14    9.818280E-13    2.436876E-11    4.656389E-10    5.273936E-09    9.502383E-10    1.011556E-10    8.051454E-12    5.367452E-13
         3.178658E-14    1.729657E-15    8.831772E-17    4.291147E-18    2.003430E-19    9.051684E-21    3.978781E-22    1.708504E-23    7.189996E-25    2.973120E-26
         1.210552E-27    4.861820E-29    1.928819E-30    7.568272E-32    2.940159E-33    1.131896E-34    4.321602E-36    1.637504E-37    6.161420E-39    2.303406E-40
         8.559657E-42    3.163160E-43    1.162864E-44    4.254285E-46    1.549363E-47    5.723481E-49
  13     2.227260E-30    1.104323E-28    5.500840E-27    2.696034E-25    1.297112E-23    6.108705E-22    2.806006E-20    1.251438E-18    5.386496E-17    2.219528E-15
         8.656379E-14    3.142388E-12    1.034111E-10    2.946828E-09    6.627904E-08    9.149418E-07    1.355821E-07    1.227617E-08    8.651834E-10    5.235753E-11
         2.859621E-12    1.450635E-13    6.959293E-15    3.195819E-16    1.416789E-17    6.101481E-19    2.564531E-20    1.055835E-21    4.270131E-23    1.700358E-24
         6.678946E-26    2.591889E-27    9.950139E-29    3.782876E-30    1.425612E-31    5.329867E-33    1.978199E-34    7.293344E-36    2.672504E-37    9.737557E-39
         3.529421E-40    1.273037E-41    4.570962E-43    1.634309E-44    5.820277E-46    2.101764E-47
  14     7.413453E-29    3.882045E-27    2.046662E-25    1.065348E-23    5.464930E-22    2.756297E-20    1.362872E-18    6.581903E-17    3.089432E-15    1.400024E-13
         6.067759E-12    2.480174E-10    9.350452E-09    3.126439E-07    8.546683E-06    1.516308E-04    1.753065E-05    1.307287E-06    7.934217E-08    4.256874E-09
         2.101824E-10    9.772149E-12    4.340609E-13    1.859976E-14    7.742001E-16    3.146211E-17    1.253076E-18    4.905855E-20    1.892452E-21    7.206653E-23
         2.713417E-24    1.011425E-25    3.736407E-27    1.369227E-28    4.981235E-30    1.800241E-31    6.467108E-33    2.310448E-34    8.212652E-36    2.905648E-37
         1.023593E-38    3.591467E-40    1.255446E-41    4.373360E-43    1.518540E-44    5.345671E-46
  15     1.738848E-27    9.646688E-26    5.401917E-24    2.998317E-22    1.647378E-20    8.945112E-19    4.790252E-17    2.523202E-15    1.302663E-13    6.560009E-12
         3.200357E-10    1.497215E-08    6.608110E-07    2.672970E-05    9.318793E-04    2.326204E-02    1.915397E-03    1.121312E-04    5.624027E-06    2.575455E-07
         1.110119E-08    4.581916E-10    1.830338E-11    7.127254E-13    2.718923E-14    1.019871E-15    3.771940E-17    1.378417E-18    4.985658E-20    1.787215E-21
         6.356546E-23    2.245177E-24    7.881251E-26    2.751272E-27    9.556593E-29    3.304517E-30    1.137955E-31    3.903981E-33    1.334723E-34    4.548772E-36
         1.545690E-37    5.238046E-39    1.770594E-40    5.970999E-42    2.009208E-43    6.858006E-45
  16     2.165970E-26    1.277361E-24    7.626892E-23    4.534189E-21    2.682194E-19    1.577531E-17    9.215786E-16    5.340746E-14    3.065223E-12    1.738348E-10
         9.711098E-09    5.319751E-07    2.838064E-05    1.458352E-03    7.081765E-02     3.05668        0.145099        6.127581E-03    2.418523E-04    9.154384E-06
         3.367308E-07    1.213071E-08    4.301273E-10    1.506201E-11    5.221417E-13    1.795077E-14    6.128462E-16    2.079924E-17    7.023125E-19    2.360968E-20
         7.906122E-22    2.638435E-23    8.778151E-25    2.912542E-26    9.639890E-28    3.183498E-29    1.049199E-30    3.451504E-32    1.133506E-33    3.716754E-35
         1.216972E-36    3.979433E-38    1.299653E-39    4.239719E-41    1.381617E-42    4.569725E-44
  17     1.738848E-27    9.646687E-26    5.401916E-24    2.998317E-22    1.647377E-20    8.945111E-19    4.790251E-17    2.523202E-15    1.302663E-13    6.560009E-12
         3.200357E-10    1.497215E-08    6.608110E-07    2.672970E-05    9.318793E-04    2.326204E-02    1.915397E-03    1.121312E-04    5.624027E-06    2.575455E-07
         1.110119E-08    4.581916E-10    1.830339E-11    7.127256E-13    2.718924E-14    1.019871E-15    3.771940E-17    1.378417E-18    4.985659E-20    1.787215E-21
         6.356546E-23    2.245177E-24    7.881250E-26    2.751271E-27    9.556590E-29    3.304516E-30    1.137954E-31    3.903978E-33    1.334722E-34    4.548767E-36
         1.545688E-37    5.238039E-39    1.770592E-40    5.970988E-42    2.009204E-43    6.857993E-45
  18     7.415551E-29    3.883222E-27    2.047250E-25    1.065633E-23    5.466268E-22    2.756898E-20    1.363129E-18    6.582935E-17    3.089814E-15    1.400151E-13
         6.068118E-12    2.480252E-10    9.350547E-09    3.126436E-07    8.546683E-06    1.516308E-04    1.753065E-05    1.307287E-06    7.934114E-08    4.256720E-09
         2.101686E-10    9.771184E-12    4.340031E-13    1.859666E-14    7.740456E-16    3.145488E-17    1.252754E-18    4.904482E-20    1.891885E-21    7.204386E-23
         2.712535E-24    1.011090E-25    3.735168E-27    1.368779E-28    4.979651E-30    1.799696E-31    6.465278E-33    2.309854E-34    8.210795E-36    2.905098E-37
         1.023442E-38    3.591111E-40    1.255389E-41    4.373422E-43    1.518661E-44    5.346572E-46
  19     1.831612E-30    9.188394E-29    4.633653E-27    2.301051E-25    1.122699E-23    5.366827E-22    2.504656E-20    1.135957E-18    4.976402E-17    2.088307E-15
         8.295857E-14    3.065128E-12    1.024118E-10    2.946705E-09    6.627903E-08    9.149418E-07    1.355821E-07    1.227667E-08    8.742675E-10    5.376244E-11
         2.990792E-12    1.546206E-13    7.557418E-15    3.533212E-16    1.593193E-17    6.971762E-19    2.974602E-20    1.241986E-21    5.089446E-23    2.051703E-24
         8.152480E-26    3.198123E-27    1.240277E-28    4.760575E-30    1.810275E-31    6.825637E-33    2.553734E-34    9.486862E-36    3.501309E-37    1.284451E-38
         4.685735E-40    1.700530E-41    6.141752E-43    2.208216E-44    7.906116E-46    2.868587E-47
  20     3.332144E-32    1.611684E-30    7.828497E-29    3.736960E-27    1.748587E-25    7.994783E-24    3.557344E-22    1.532398E-20    6.346196E-19    2.502530E-17
         9.268137E-16    3.157558E-14    9.572051E-13    2.436503E-11    4.656386E-10    5.273936E-09    9.502388E-10    1.011712E-10    8.269987E-12    5.734951E-13
         3.549397E-14    2.019845E-15    1.077325E-16    5.456922E-18    2.649839E-19    1.242262E-20    5.652821E-22    2.507311E-23    1.087693E-24    4.627530E-26
         1.935165E-27    7.969485E-29    3.237248E-30    1.298800E-31    5.152677E-33    2.023411E-34    7.871831E-36    3.036270E-37    1.161907E-38    4.413964E-40
         1.665497E-41    6.244873E-43    2.327843E-44    8.629819E-46    3.182908E-47    1.189217E-48
  21     4.929479E-34    2.312149E-32    1.088132E-30    5.023114E-29    2.268128E-27    9.982798E-26    4.263890E-24    1.757244E-22    6.934208E-21    2.592366E-19
         9.042817E-18    2.875865E-16    8.031603E-15    1.843803E-13    3.064528E-12    2.948966E-11    6.241494E-12    7.634317E-13    7.044056E-14    5.438603E-15
         3.706979E-16    2.302807E-17    1.331039E-18    7.261564E-20    3.778019E-21    1.889085E-22    9.132242E-24    4.288216E-25    1.963279E-26    8.790723E-28
         3.859266E-29    1.664727E-30    7.068344E-32    2.958645E-33    1.222475E-34    4.991764E-36    2.016358E-37    8.064181E-39    3.195707E-40    1.255697E-41
         4.895301E-43    1.894471E-44    7.281551E-46    2.780865E-47    1.055689E-48    4.058446E-50
  22     6.245582E-36    2.855754E-34    1.309065E-32    5.875477E-31    2.574147E-29    1.096698E-27    4.521891E-26    1.793213E-24    6.783045E-23    2.419572E-21
         8.006361E-20    2.396944E-18    6.232691E-17    1.308611E-15    1.925396E-14    1.613513E-13    3.915132E-14    5.405859E-15    5.556118E-16    4.726818E-17
         3.518549E-18    2.369464E-19    1.475464E-20    8.625961E-22    4.787304E-23    2.543268E-24    1.301677E-25    6.451054E-27    3.108499E-28    1.461222E-29
         6.719403E-31    3.029735E-32    1.342127E-33    5.850992E-35    2.513874E-36    1.065819E-37    4.464043E-39    1.848843E-40    7.578280E-42    3.076605E-43
         1.237938E-44    4.939888E-46    1.955984E-47    7.688806E-49    3.001924E-50    1.186534E-51
  23     7.016050E-38    3.140467E-36    1.408268E-34    6.172824E-33    2.635987E-31    1.092146E-29    4.367620E-28    1.674672E-26    6.102149E-25    2.087474E-23
         6.588369E-22    1.868406E-20    4.558955E-19    8.846882E-18    1.168425E-16    8.685753E-16    2.372774E-16    3.648042E-17    4.132064E-18    3.840243E-19
         3.099838E-20    2.249524E-21    1.501436E-22    9.365107E-24    5.522934E-25    3.106721E-26    1.678327E-27    8.754790E-29    4.429036E-30    2.180846E-31
         1.048306E-32    4.931579E-34    2.275327E-35    1.031462E-36    4.601486E-38    2.022899E-39    8.774094E-41    3.758734E-42    1.591838E-43    6.670151E-45
         2.767424E-46    1.137652E-47    4.636585E-49    1.874473E-50    7.520967E-52    3.054199E-53
  24     7.164874E-40    3.149559E-38    1.386250E-36    5.954856E-35    2.487576E-33    1.006083E-31    3.917598E-30    1.458199E-28    5.139397E-27    1.693196E-25
         5.119748E-24    1.382125E-22    3.183719E-21    5.757014E-20    6.902018E-19    4.617015E-18    1.400107E-18    2.370698E-19    2.933226E-20    2.956521E-21
         2.572253E-22    2.001211E-23    1.425337E-24    9.448587E-26    5.900828E-27    3.503931E-28    1.992551E-29    1.091321E-30    5.783501E-32    2.976969E-33
         1.493060E-34    7.315715E-36    3.509929E-37    1.652143E-38    7.642508E-40    3.479374E-41    1.560998E-42    6.909278E-44    3.020158E-45    1.304918E-46
         5.577528E-48    2.360040E-49    9.892328E-51    4.109941E-52    1.693442E-53    7.060567E-55
  25     6.775266E-42    2.931928E-40    1.269859E-38    5.360321E-37    2.196766E-35    8.699060E-34    3.308714E-32    1.199527E-30    4.103424E-29    1.306616E-27
         3.799153E-26    9.802536E-25    2.141958E-23    3.632812E-22    3.990225E-21    2.429692E-20    8.087092E-21    1.494523E-21    2.005014E-22    2.178254E-23
         2.031957E-24    1.687187E-25    1.277303E-26    8.967903E-28    5.912881E-29    3.696288E-30    2.207146E-31    1.266427E-32    7.016370E-34    3.768406E-35
         1.968611E-36    1.003087E-37    4.997265E-39    2.439132E-40    1.168481E-41    5.502595E-43    2.550740E-44    1.165311E-45    5.252433E-47    2.337959E-48
         1.028592E-49    4.476253E-51    1.928205E-52    8.226836E-54    3.478649E-55    1.488138E-56
  26     6.015214E-44    2.567213E-42    1.096299E-40    4.557060E-39    1.836309E-37    7.137004E-36    2.658439E-34    9.412990E-33    3.134503E-31    9.676098E-30
         2.714034E-28    6.715691E-27    1.397546E-25    2.235018E-24    2.266581E-23    1.268217E-22    4.590295E-23    9.189143E-24    1.328316E-24    1.547139E-25
         1.540344E-26    1.359592E-27    1.090264E-28    8.082337E-30    5.610651E-31    3.683251E-32    2.304296E-33    1.382331E-34    7.991571E-36    4.470947E-37
         2.428958E-38    1.285190E-39    6.639401E-41    3.356153E-42    1.663103E-43    8.092283E-45    3.871888E-46    1.824007E-47    8.469812E-49    3.880637E-50
         1.755932E-51    7.853120E-53    3.473978E-54    1.521082E-55    6.596166E-57    2.893471E-58
  27     5.067111E-46    2.135867E-44    9.006879E-43    3.692938E-41    1.465826E-39    5.602492E-38    2.048026E-36    7.098746E-35    2.306735E-33    6.921435E-32
         1.877938E-30    4.469327E-29    8.887160E-28    1.346136E-26    1.268748E-25    6.575103E-25    2.567867E-25    5.532924E-26    8.571194E-27    1.065336E-27
         1.127471E-28    1.054153E-29    8.926145E-31    6.967417E-32    5.079666E-33    3.494051E-34    2.285560E-35    1.430815E-36    8.616909E-38    5.013714E-39
         2.828580E-40    1.552032E-41    8.303999E-43    4.342141E-44    2.223303E-45    1.116641E-46    5.509367E-48    2.673879E-49    1.278051E-50    6.022564E-52
         2.800622E-53    1.286293E-54    5.839485E-56    2.622192E-57    1.165459E-58    5.239193E-60
  28     4.083210E-48    1.701798E-46    7.095335E-45    2.873359E-43    1.125071E-41    4.235437E-40    1.522141E-38    5.174631E-37    1.644298E-35    4.806494E-34
         1.264520E-32    2.901819E-31    5.529285E-30    7.962330E-29    7.014406E-28    3.389610E-27    1.418931E-27    3.272681E-28    5.407629E-29    7.143251E-30
         8.007393E-31    7.905432E-32    7.048616E-33    5.778601E-34    4.414585E-35    3.175187E-36    2.167593E-37    1.413652E-38    8.854736E-40    5.350496E-41
         3.130456E-42    1.779025E-43    9.846635E-45    5.320294E-46    2.811933E-47    1.456354E-48    7.402875E-50    3.698349E-51    1.818133E-52    8.805083E-54
         4.204971E-55    1.981998E-56    9.227984E-58    4.247113E-59    1.933594E-60    8.902860E-62
  29     3.167873E-50    1.306655E-48    5.391640E-47    2.158871E-45    8.348566E-44    3.099699E-42    1.096757E-40    3.662826E-39    1.140200E-37    3.253353E-36
         8.316801E-35    1.844384E-33    3.375953E-32    4.636804E-31    3.836953E-30    1.739019E-29    7.758355E-30    1.906321E-30    3.345977E-31    4.680435E-32
         5.539521E-33    5.758517E-34    5.392676E-35    4.632783E-36    3.700966E-37    2.778195E-38    1.975920E-39    1.340364E-40    8.719440E-42    5.464273E-43
         3.311366E-44    1.946785E-45    1.113449E-46    6.210214E-48    3.384818E-49    1.806149E-50    9.450705E-52    4.856142E-53    2.453530E-54    1.220289E-55
         5.980715E-57    2.891130E-58    1.379663E-59    6.504335E-61    3.031595E-62    1.428896E-63
  30     2.378431E-52    9.716153E-51    3.971029E-49    1.573568E-47    6.015801E-46    2.205290E-44    7.691708E-43    2.527008E-41    7.717990E-40    2.153282E-38
         5.358744E-37    1.150711E-35    2.027662E-34    2.663751E-33    2.079577E-32    8.885050E-32    4.203457E-32    1.095706E-32    2.035441E-33    3.005369E-34
         3.744825E-35    4.088478E-36    4.012082E-37    3.604299E-38    3.005224E-39    2.350397E-40    1.738829E-41    1.225078E-42    8.265616E-44    5.365371E-45
         3.363791E-46    2.043634E-47    1.206589E-48    6.940146E-50    3.897320E-51    2.140783E-52    1.152161E-53    6.084594E-55    3.157206E-56    1.611544E-57
         8.100531E-59    4.013615E-60    1.961956E-61    9.469341E-63    4.515998E-64    2.177848E-65
  31     1.756877E-54    7.107965E-53    2.877754E-51    1.128735E-49    4.267150E-48    1.545016E-46    5.314564E-45    1.718719E-43    5.154486E-42    1.407538E-40
         3.414050E-39    7.108119E-38    1.207580E-36    1.520523E-35    1.123990E-34    4.546205E-34    2.271308E-34    6.259400E-35    1.227011E-35    1.907382E-36
         2.496468E-37    2.856718E-38    2.932284E-39    2.750235E-40    2.389903E-41    1.944895E-42    1.494893E-43    1.092720E-44    7.639195E-46    5.131832E-47
         3.325904E-48    2.086562E-49    1.270875E-50    7.533937E-52    4.356598E-53    2.462194E-54    1.362358E-55    7.391241E-57    3.937241E-58    2.061799E-59
         1.062573E-60    5.394632E-62    2.700525E-63    1.334060E-64    6.508504E-66    3.210830E-67

 CONCENTRATION WILL BE SAVED ON UNIT 1029 AT END OF TIME STEP    2, STRESS PERIOD    1


  MASS BUDGET FOR ENTIRE MODEL AT END OF TIME STEP    2, STRESS PERIOD   1
  ---------------------------------------------------------------------------------------------------

     CUMULATIVE MASS      M       RATES FOR THIS TIME STEP      M/T          PACKAGE NAME    
     ------------------                 ------------------------                     ----------------

           IN:                                      IN:
           ---                                      ---
     STORAGE-AQUEOUS =           0.0000       STORAGE-AQUEOUS =           0.0000     MST                              
                 WEL =        1000.0000                   WEL =        1000.0000     SSM_WEL-1                        
                 CHD =           0.0000                   CHD =           0.0000     SSM_CHD-1                        
                 CNC =           0.0000                   CNC =           0.0000     CNC-1                            

            TOTAL IN =        1000.0000              TOTAL IN =        1000.0000

          OUT:                                     OUT:
          ----                                     ----
     STORAGE-AQUEOUS =        1000.0000       STORAGE-AQUEOUS =        1000.0000     MST                              
                 WEL =           0.0000                   WEL =           0.0000     SSM_WEL-1                        
                 CHD =       3.1291E-43                   CHD =       6.0600E-43     SSM_CHD-1                        
                 CNC =       2.8788E-50                   CNC =       5.5680E-50     CNC-1                            

           TOTAL OUT =        1000.0000             TOTAL OUT =        1000.0000

            IN - OUT =       5.6900E-09              IN - OUT =       5.7488E-09

 PERCENT DISCREPANCY =           0.00     PERCENT DISCREPANCY =           0.00




         TIME SUMMARY AT END OF TIME STEP    2 IN STRESS PERIOD    1
                    SECONDS     MINUTES      HOURS       DAYS        YEARS
                    -----------------------------------------------------------
   TIME STEP LENGTH  43200.      720.00      12.000     0.50000     1.36893E-03
 STRESS PERIOD TIME  86400.      1440.0      24.000      1.0000     2.73785E-03
         TOTAL TIME  86400.      1440.0      24.000      1.0000     2.73785E-03


end timestep


start timestep kper="2" kstp="1" mode="normal"


 END OF FILE DETECTED IN OUTPUT CONTROL.
 CURRENT OUTPUT CONTROL SETTINGS WILL BE 
 REPEATED UNTIL THE END OF THE SIMULATION.

 OUTPUT CONTROL FOR STRESS PERIOD 2 IS REPEATED USING SETTINGS FROM A PREVIOUS STRESS PERIOD.

end timestep


start timestep kper="2" kstp="2" mode="normal"


end timestep


start timestep kper="2" kstp="3" mode="normal"


end timestep


start timestep kper="2" kstp="4" mode="normal"


end timestep


start timestep kper="2" kstp="5" mode="normal"


end timestep


start timestep kper="2" kstp="6" mode="normal"


end timestep


start timestep kper="2" kstp="7" mode="normal"


end timestep


start timestep kper="2" kstp="8" mode="normal"


end timestep


start timestep kper="2" kstp="9" mode="normal"


end timestep


start timestep kper="2" kstp="10" mode="normal"


end timestep


start timestep kper="2" kstp="11" mode="normal"


end timestep


start timestep kper="2" kstp="12" mode="normal"


end timestep


start timestep kper="2" kstp="13" mode="normal"


end timestep


start timestep kper="2" kstp="14" mode="normal"


end timestep


start timestep kper="2" kstp="15" mode="normal"


end timestep


start timestep kper="2" kstp="16" mode="normal"


end timestep


start timestep kper="2" kstp="17" mode="normal"


end timestep


start timestep kper="2" kstp="18" mode="normal"


end timestep


start timestep kper="2" kstp="19" mode="normal"


end timestep


start timestep kper="2" kstp="20" mode="normal"


end timestep


start timestep kper="2" kstp="21" mode="normal"


end timestep


start timestep kper="2" kstp="22" mode="normal"


end timestep


start timestep kper="2" kstp="23" mode="normal"


end timestep


start timestep kper="2" kstp="24" mode="normal"


end timestep


start timestep kper="2" kstp="25" mode="normal"


end timestep


start timestep kper="2" kstp="26" mode="normal"


end timestep


start timestep kper="2" kstp="27" mode="normal"


end timestep


start timestep kper="2" kstp="28" mode="normal"


end timestep


start timestep kper="2" kstp="29" mode="normal"


end timestep


start timestep kper="2" kstp="30" mode="normal"


end timestep


start timestep kper="2" kstp="31" mode="normal"


end timestep


start timestep kper="2" kstp="32" mode="normal"


end timestep


start timestep kper="2" kstp="33" mode="normal"


end timestep


start timestep kper="2" kstp="34" mode="normal"


end timestep


start timestep kper="2" kstp="35" mode="normal"


end timestep


start timestep kper="2" kstp="36" mode="normal"


end timestep


start timestep kper="2" kstp="37" mode="normal"


end timestep


start timestep kper="2" kstp="38" mode="normal"


end timestep


start timestep kper="2" kstp="39" mode="normal"


end timestep


start timestep kper="2" kstp="40" mode="normal"


end timestep


start timestep kper="2" kstp="41" mode="normal"


end timestep


start timestep kper="2" kstp="42" mode="normal"


end timestep


start timestep kper="2" kstp="43" mode="normal"


end timestep


start timestep kper="2" kstp="44" mode="normal"


end timestep


start timestep kper="2" kstp="45" mode="normal"


end timestep


start timestep kper="2" kstp="46" mode="normal"


end timestep


start timestep kper="2" kstp="47" mode="normal"


end timestep


start timestep kper="2" kstp="48" mode="normal"


end timestep


start timestep kper="2" kstp="49" mode="normal"


end timestep


start timestep kper="2" kstp="50" mode="normal"


end timestep


start timestep kper="2" kstp="51" mode="normal"


end timestep


start timestep kper="2" kstp="52" mode="normal"


end timestep


start timestep kper="2" kstp="53" mode="normal"


end timestep


start timestep kper="2" kstp="54" mode="normal"


end timestep


start timestep kper="2" kstp="55" mode="normal"


end timestep


start timestep kper="2" kstp="56" mode="normal"


end timestep


start timestep kper="2" kstp="57" mode="normal"


end timestep


start timestep kper="2" kstp="58" mode="normal"


end timestep


start timestep kper="2" kstp="59" mode="normal"


end timestep


start timestep kper="2" kstp="60" mode="normal"


end timestep


start timestep kper="2" kstp="61" mode="normal"


end timestep


start timestep kper="2" kstp="62" mode="normal"


end timestep


start timestep kper="2" kstp="63" mode="normal"


end timestep


start timestep kper="2" kstp="64" mode="normal"


end timestep


start timestep kper="2" kstp="65" mode="normal"


end timestep


start timestep kper="2" kstp="66" mode="normal"


end timestep


start timestep kper="2" kstp="67" mode="normal"


end timestep


start timestep kper="2" kstp="68" mode="normal"


end timestep


start timestep kper="2" kstp="69" mode="normal"


end timestep


start timestep kper="2" kstp="70" mode="normal"


end timestep


start timestep kper="2" kstp="71" mode="normal"


end timestep


start timestep kper="2" kstp="72" mode="normal"


end timestep


start timestep kper="2" kstp="73" mode="normal"


end timestep


start timestep kper="2" kstp="74" mode="normal"


end timestep


start timestep kper="2" kstp="75" mode="normal"


end timestep


start timestep kper="2" kstp="76" mode="normal"


end timestep


start timestep kper="2" kstp="77" mode="normal"


end timestep


start timestep kper="2" kstp="78" mode="normal"


end timestep


start timestep kper="2" kstp="79" mode="normal"


end timestep


start timestep kper="2" kstp="80" mode="normal"


end timestep


start timestep kper="2" kstp="81" mode="normal"


end timestep


start timestep kper="2" kstp="82" mode="normal"


end timestep


start timestep kper="2" kstp="83" mode="normal"


end timestep


start timestep kper="2" kstp="84" mode="normal"


end timestep


start timestep kper="2" kstp="85" mode="normal"


end timestep


start timestep kper="2" kstp="86" mode="normal"


end timestep


start timestep kper="2" kstp="87" mode="normal"


end timestep


start timestep kper="2" kstp="88" mode="normal"


end timestep


start timestep kper="2" kstp="89" mode="normal"


end timestep


start timestep kper="2" kstp="90" mode="normal"


end timestep


start timestep kper="2" kstp="91" mode="normal"


end timestep


start timestep kper="2" kstp="92" mode="normal"


end timestep


start timestep kper="2" kstp="93" mode="normal"


end timestep


start timestep kper="2" kstp="94" mode="normal"


end timestep


start timestep kper="2" kstp="95" mode="normal"


end timestep


start timestep kper="2" kstp="96" mode="normal"


end timestep


start timestep kper="2" kstp="97" mode="normal"


end timestep


start timestep kper="2" kstp="98" mode="normal"


end timestep


start timestep kper="2" kstp="99" mode="normal"


end timestep


start timestep kper="2" kstp="100" mode="normal"


end timestep


start timestep kper="2" kstp="101" mode="normal"


end timestep


start timestep kper="2" kstp="102" mode="normal"


end timestep


start timestep kper="2" kstp="103" mode="normal"


end timestep


start timestep kper="2" kstp="104" mode="normal"


end timestep


start timestep kper="2" kstp="105" mode="normal"


end timestep


start timestep kper="2" kstp="106" mode="normal"


end timestep


start timestep kper="2" kstp="107" mode="normal"


end timestep


start timestep kper="2" kstp="108" mode="normal"


end timestep


start timestep kper="2" kstp="109" mode="normal"


end timestep


start timestep kper="2" kstp="110" mode="normal"


end timestep


start timestep kper="2" kstp="111" mode="normal"


end timestep


start timestep kper="2" kstp="112" mode="normal"


end timestep


start timestep kper="2" kstp="113" mode="normal"


end timestep


start timestep kper="2" kstp="114" mode="normal"


end timestep


start timestep kper="2" kstp="115" mode="normal"


end timestep


start timestep kper="2" kstp="116" mode="normal"


end timestep


start timestep kper="2" kstp="117" mode="normal"


end timestep


start timestep kper="2" kstp="118" mode="normal"


end timestep


start timestep kper="2" kstp="119" mode="normal"


end timestep


start timestep kper="2" kstp="120" mode="normal"


end timestep


start timestep kper="2" kstp="121" mode="normal"


end timestep


start timestep kper="2" kstp="122" mode="normal"


end timestep


start timestep kper="2" kstp="123" mode="normal"


end timestep


start timestep kper="2" kstp="124" mode="normal"


end timestep


start timestep kper="2" kstp="125" mode="normal"


end timestep


start timestep kper="2" kstp="126" mode="normal"


end timestep


start timestep kper="2" kstp="127" mode="normal"


end timestep


start timestep kper="2" kstp="128" mode="normal"


end timestep


start timestep kper="2" kstp="129" mode="normal"


end timestep


start timestep kper="2" kstp="130" mode="normal"


end timestep


start timestep kper="2" kstp="131" mode="normal"


end timestep


start timestep kper="2" kstp="132" mode="normal"


end timestep


start timestep kper="2" kstp="133" mode="normal"


end timestep


start timestep kper="2" kstp="134" mode="normal"


end timestep


start timestep kper="2" kstp="135" mode="normal"


end timestep


start timestep kper="2" kstp="136" mode="normal"


end timestep


start timestep kper="2" kstp="137" mode="normal"


end timestep


start timestep kper="2" kstp="138" mode="normal"


end timestep


start timestep kper="2" kstp="139" mode="normal"


end timestep


start timestep kper="2" kstp="140" mode="normal"


end timestep


start timestep kper="2" kstp="141" mode="normal"


end timestep


start timestep kper="2" kstp="142" mode="normal"


end timestep


start timestep kper="2" kstp="143" mode="normal"


end timestep


start timestep kper="2" kstp="144" mode="normal"


end timestep


start timestep kper="2" kstp="145" mode="normal"


end timestep


start timestep kper="2" kstp="146" mode="normal"


end timestep


start timestep kper="2" kstp="147" mode="normal"


end timestep


start timestep kper="2" kstp="148" mode="normal"


end timestep


start timestep kper="2" kstp="149" mode="normal"


end timestep


start timestep kper="2" kstp="150" mode="normal"


end timestep


start timestep kper="2" kstp="151" mode="normal"


end timestep


start timestep kper="2" kstp="152" mode="normal"


end timestep


start timestep kper="2" kstp="153" mode="normal"


end timestep


start timestep kper="2" kstp="154" mode="normal"


end timestep


start timestep kper="2" kstp="155" mode="normal"


end timestep


start timestep kper="2" kstp="156" mode="normal"


end timestep


start timestep kper="2" kstp="157" mode="normal"


end timestep


start timestep kper="2" kstp="158" mode="normal"


end timestep


start timestep kper="2" kstp="159" mode="normal"


end timestep


start timestep kper="2" kstp="160" mode="normal"


end timestep


start timestep kper="2" kstp="161" mode="normal"


end timestep


start timestep kper="2" kstp="162" mode="normal"


end timestep


start timestep kper="2" kstp="163" mode="normal"


end timestep


start timestep kper="2" kstp="164" mode="normal"


end timestep


start timestep kper="2" kstp="165" mode="normal"


end timestep


start timestep kper="2" kstp="166" mode="normal"


end timestep


start timestep kper="2" kstp="167" mode="normal"


end timestep


start timestep kper="2" kstp="168" mode="normal"


end timestep


start timestep kper="2" kstp="169" mode="normal"


end timestep


start timestep kper="2" kstp="170" mode="normal"


end timestep


start timestep kper="2" kstp="171" mode="normal"


end timestep


start timestep kper="2" kstp="172" mode="normal"


end timestep


start timestep kper="2" kstp="173" mode="normal"


end timestep


start timestep kper="2" kstp="174" mode="normal"


end timestep


start timestep kper="2" kstp="175" mode="normal"


end timestep


start timestep kper="2" kstp="176" mode="normal"


end timestep


start timestep kper="2" kstp="177" mode="normal"


end timestep


start timestep kper="2" kstp="178" mode="normal"


end timestep


start timestep kper="2" kstp="179" mode="normal"


end timestep


start timestep kper="2" kstp="180" mode="normal"


end timestep


start timestep kper="2" kstp="181" mode="normal"


end timestep


start timestep kper="2" kstp="182" mode="normal"


end timestep


start timestep kper="2" kstp="183" mode="normal"


end timestep


start timestep kper="2" kstp="184" mode="normal"


end timestep


start timestep kper="2" kstp="185" mode="normal"


end timestep


start timestep kper="2" kstp="186" mode="normal"


end timestep


start timestep kper="2" kstp="187" mode="normal"


end timestep


start timestep kper="2" kstp="188" mode="normal"


end timestep


start timestep kper="2" kstp="189" mode="normal"


end timestep


start timestep kper="2" kstp="190" mode="normal"


end timestep


start timestep kper="2" kstp="191" mode="normal"


end timestep


start timestep kper="2" kstp="192" mode="normal"


end timestep


start timestep kper="2" kstp="193" mode="normal"


end timestep


start timestep kper="2" kstp="194" mode="normal"


end timestep


start timestep kper="2" kstp="195" mode="normal"


end timestep


start timestep kper="2" kstp="196" mode="normal"


end timestep


start timestep kper="2" kstp="197" mode="normal"


end timestep


start timestep kper="2" kstp="198" mode="normal"


end timestep


start timestep kper="2" kstp="199" mode="normal"


end timestep


start timestep kper="2" kstp="200" mode="normal"


end timestep


start timestep kper="2" kstp="201" mode="normal"


end timestep


start timestep kper="2" kstp="202" mode="normal"


end timestep


start timestep kper="2" kstp="203" mode="normal"


end timestep


start timestep kper="2" kstp="204" mode="normal"


end timestep


start timestep kper="2" kstp="205" mode="normal"


end timestep


start timestep kper="2" kstp="206" mode="normal"


end timestep


start timestep kper="2" kstp="207" mode="normal"


end timestep


start timestep kper="2" kstp="208" mode="normal"


end timestep


start timestep kper="2" kstp="209" mode="normal"


end timestep


start timestep kper="2" kstp="210" mode="normal"


end timestep


start timestep kper="2" kstp="211" mode="normal"


end timestep


start timestep kper="2" kstp="212" mode="normal"


end timestep


start timestep kper="2" kstp="213" mode="normal"


end timestep


start timestep kper="2" kstp="214" mode="normal"


end timestep


start timestep kper="2" kstp="215" mode="normal"


end timestep


start timestep kper="2" kstp="216" mode="normal"


end timestep


start timestep kper="2" kstp="217" mode="normal"


end timestep


start timestep kper="2" kstp="218" mode="normal"


end timestep


start timestep kper="2" kstp="219" mode="normal"


end timestep


start timestep kper="2" kstp="220" mode="normal"


end timestep


start timestep kper="2" kstp="221" mode="normal"


end timestep


start timestep kper="2" kstp="222" mode="normal"


end timestep


start timestep kper="2" kstp="223" mode="normal"


end timestep


start timestep kper="2" kstp="224" mode="normal"


end timestep


start timestep kper="2" kstp="225" mode="normal"


end timestep


start timestep kper="2" kstp="226" mode="normal"


end timestep


start timestep kper="2" kstp="227" mode="normal"


end timestep


start timestep kper="2" kstp="228" mode="normal"


end timestep


start timestep kper="2" kstp="229" mode="normal"


end timestep


start timestep kper="2" kstp="230" mode="normal"


end timestep


start timestep kper="2" kstp="231" mode="normal"


end timestep


start timestep kper="2" kstp="232" mode="normal"


end timestep


start timestep kper="2" kstp="233" mode="normal"


end timestep


start timestep kper="2" kstp="234" mode="normal"


end timestep


start timestep kper="2" kstp="235" mode="normal"


end timestep


start timestep kper="2" kstp="236" mode="normal"


end timestep


start timestep kper="2" kstp="237" mode="normal"


end timestep


start timestep kper="2" kstp="238" mode="normal"


end timestep


start timestep kper="2" kstp="239" mode="normal"


end timestep


start timestep kper="2" kstp="240" mode="normal"


end timestep


start timestep kper="2" kstp="241" mode="normal"


end timestep


start timestep kper="2" kstp="242" mode="normal"


end timestep


start timestep kper="2" kstp="243" mode="normal"


end timestep


start timestep kper="2" kstp="244" mode="normal"


end timestep


start timestep kper="2" kstp="245" mode="normal"


end timestep


start timestep kper="2" kstp="246" mode="normal"


end timestep


start timestep kper="2" kstp="247" mode="normal"


end timestep


start timestep kper="2" kstp="248" mode="normal"


end timestep


start timestep kper="2" kstp="249" mode="normal"


end timestep


start timestep kper="2" kstp="250" mode="normal"


end timestep


start timestep kper="2" kstp="251" mode="normal"


end timestep


start timestep kper="2" kstp="252" mode="normal"


end timestep


start timestep kper="2" kstp="253" mode="normal"


end timestep


start timestep kper="2" kstp="254" mode="normal"


end timestep


start timestep kper="2" kstp="255" mode="normal"


end timestep


start timestep kper="2" kstp="256" mode="normal"


end timestep


start timestep kper="2" kstp="257" mode="normal"


end timestep


start timestep kper="2" kstp="258" mode="normal"


end timestep


start timestep kper="2" kstp="259" mode="normal"


end timestep


start timestep kper="2" kstp="260" mode="normal"


end timestep


start timestep kper="2" kstp="261" mode="normal"


end timestep


start timestep kper="2" kstp="262" mode="normal"


end timestep


start timestep kper="2" kstp="263" mode="normal"


end timestep


start timestep kper="2" kstp="264" mode="normal"


end timestep


start timestep kper="2" kstp="265" mode="normal"


end timestep


start timestep kper="2" kstp="266" mode="normal"


end timestep


start timestep kper="2" kstp="267" mode="normal"


end timestep


start timestep kper="2" kstp="268" mode="normal"


end timestep


start timestep kper="2" kstp="269" mode="normal"


end timestep


start timestep kper="2" kstp="270" mode="normal"


end timestep


start timestep kper="2" kstp="271" mode="normal"


end timestep


start timestep kper="2" kstp="272" mode="normal"


end timestep


start timestep kper="2" kstp="273" mode="normal"


end timestep


start timestep kper="2" kstp="274" mode="normal"


end timestep


start timestep kper="2" kstp="275" mode="normal"


end timestep


start timestep kper="2" kstp="276" mode="normal"


end timestep


start timestep kper="2" kstp="277" mode="normal"


end timestep


start timestep kper="2" kstp="278" mode="normal"


end timestep


start timestep kper="2" kstp="279" mode="normal"


end timestep


start timestep kper="2" kstp="280" mode="normal"


end timestep


start timestep kper="2" kstp="281" mode="normal"


end timestep


start timestep kper="2" kstp="282" mode="normal"


end timestep


start timestep kper="2" kstp="283" mode="normal"


end timestep


start timestep kper="2" kstp="284" mode="normal"


end timestep


start timestep kper="2" kstp="285" mode="normal"


end timestep


start timestep kper="2" kstp="286" mode="normal"


end timestep


start timestep kper="2" kstp="287" mode="normal"


end timestep


start timestep kper="2" kstp="288" mode="normal"


end timestep


start timestep kper="2" kstp="289" mode="normal"


end timestep


start timestep kper="2" kstp="290" mode="normal"


end timestep


start timestep kper="2" kstp="291" mode="normal"


end timestep


start timestep kper="2" kstp="292" mode="normal"


end timestep


start timestep kper="2" kstp="293" mode="normal"


end timestep


start timestep kper="2" kstp="294" mode="normal"


end timestep


start timestep kper="2" kstp="295" mode="normal"


end timestep


start timestep kper="2" kstp="296" mode="normal"


end timestep


start timestep kper="2" kstp="297" mode="normal"


end timestep


start timestep kper="2" kstp="298" mode="normal"


end timestep


start timestep kper="2" kstp="299" mode="normal"


end timestep


start timestep kper="2" kstp="300" mode="normal"


end timestep


start timestep kper="2" kstp="301" mode="normal"


end timestep


start timestep kper="2" kstp="302" mode="normal"


end timestep


start timestep kper="2" kstp="303" mode="normal"


end timestep


start timestep kper="2" kstp="304" mode="normal"


end timestep


start timestep kper="2" kstp="305" mode="normal"


end timestep


start timestep kper="2" kstp="306" mode="normal"


end timestep


start timestep kper="2" kstp="307" mode="normal"


end timestep


start timestep kper="2" kstp="308" mode="normal"


end timestep


start timestep kper="2" kstp="309" mode="normal"


end timestep


start timestep kper="2" kstp="310" mode="normal"


end timestep


start timestep kper="2" kstp="311" mode="normal"


end timestep


start timestep kper="2" kstp="312" mode="normal"


end timestep


start timestep kper="2" kstp="313" mode="normal"


end timestep


start timestep kper="2" kstp="314" mode="normal"


end timestep


start timestep kper="2" kstp="315" mode="normal"


end timestep


start timestep kper="2" kstp="316" mode="normal"


end timestep


start timestep kper="2" kstp="317" mode="normal"


end timestep


start timestep kper="2" kstp="318" mode="normal"


end timestep


start timestep kper="2" kstp="319" mode="normal"


end timestep


start timestep kper="2" kstp="320" mode="normal"


end timestep


start timestep kper="2" kstp="321" mode="normal"


end timestep


start timestep kper="2" kstp="322" mode="normal"


end timestep


start timestep kper="2" kstp="323" mode="normal"


end timestep


start timestep kper="2" kstp="324" mode="normal"


end timestep


start timestep kper="2" kstp="325" mode="normal"


end timestep


start timestep kper="2" kstp="326" mode="normal"


end timestep


start timestep kper="2" kstp="327" mode="normal"


end timestep


start timestep kper="2" kstp="328" mode="normal"


end timestep


start timestep kper="2" kstp="329" mode="normal"


end timestep


start timestep kper="2" kstp="330" mode="normal"


end timestep


start timestep kper="2" kstp="331" mode="normal"


end timestep


start timestep kper="2" kstp="332" mode="normal"


end timestep


start timestep kper="2" kstp="333" mode="normal"


end timestep


start timestep kper="2" kstp="334" mode="normal"


end timestep


start timestep kper="2" kstp="335" mode="normal"


end timestep


start timestep kper="2" kstp="336" mode="normal"


end timestep


start timestep kper="2" kstp="337" mode="normal"


end timestep


start timestep kper="2" kstp="338" mode="normal"


end timestep


start timestep kper="2" kstp="339" mode="normal"


end timestep


start timestep kper="2" kstp="340" mode="normal"


end timestep


start timestep kper="2" kstp="341" mode="normal"


end timestep


start timestep kper="2" kstp="342" mode="normal"


end timestep


start timestep kper="2" kstp="343" mode="normal"


end timestep


start timestep kper="2" kstp="344" mode="normal"


end timestep


start timestep kper="2" kstp="345" mode="normal"


end timestep


start timestep kper="2" kstp="346" mode="normal"


end timestep


start timestep kper="2" kstp="347" mode="normal"


end timestep


start timestep kper="2" kstp="348" mode="normal"


end timestep


start timestep kper="2" kstp="349" mode="normal"


end timestep


start timestep kper="2" kstp="350" mode="normal"


end timestep


start timestep kper="2" kstp="351" mode="normal"


end timestep


start timestep kper="2" kstp="352" mode="normal"


end timestep


start timestep kper="2" kstp="353" mode="normal"


end timestep


start timestep kper="2" kstp="354" mode="normal"


end timestep


start timestep kper="2" kstp="355" mode="normal"


end timestep


start timestep kper="2" kstp="356" mode="normal"


end timestep


start timestep kper="2" kstp="357" mode="normal"


end timestep


start timestep kper="2" kstp="358" mode="normal"


end timestep


start timestep kper="2" kstp="359" mode="normal"


end timestep


start timestep kper="2" kstp="360" mode="normal"


end timestep


start timestep kper="2" kstp="361" mode="normal"


end timestep


start timestep kper="2" kstp="362" mode="normal"


end timestep


start timestep kper="2" kstp="363" mode="normal"


end timestep


start timestep kper="2" kstp="364" mode="normal"


end timestep


start timestep kper="2" kstp="365" mode="normal"


end timestep


start timestep kper="2" kstp="366" mode="normal"


end timestep


start timestep kper="2" kstp="367" mode="normal"


end timestep


start timestep kper="2" kstp="368" mode="normal"


end timestep


start timestep kper="2" kstp="369" mode="normal"


end timestep


start timestep kper="2" kstp="370" mode="normal"


end timestep


start timestep kper="2" kstp="371" mode="normal"


end timestep


start timestep kper="2" kstp="372" mode="normal"


end timestep


start timestep kper="2" kstp="373" mode="normal"


end timestep


start timestep kper="2" kstp="374" mode="normal"


end timestep


start timestep kper="2" kstp="375" mode="normal"


end timestep


start timestep kper="2" kstp="376" mode="normal"


end timestep


start timestep kper="2" kstp="377" mode="normal"


end timestep


start timestep kper="2" kstp="378" mode="normal"


end timestep


start timestep kper="2" kstp="379" mode="normal"


end timestep


start timestep kper="2" kstp="380" mode="normal"


end timestep


start timestep kper="2" kstp="381" mode="normal"


end timestep


start timestep kper="2" kstp="382" mode="normal"


end timestep


start timestep kper="2" kstp="383" mode="normal"


end timestep


start timestep kper="2" kstp="384" mode="normal"


end timestep


start timestep kper="2" kstp="385" mode="normal"


end timestep


start timestep kper="2" kstp="386" mode="normal"


end timestep


start timestep kper="2" kstp="387" mode="normal"


end timestep


start timestep kper="2" kstp="388" mode="normal"


end timestep


start timestep kper="2" kstp="389" mode="normal"


end timestep


start timestep kper="2" kstp="390" mode="normal"


end timestep


start timestep kper="2" kstp="391" mode="normal"


end timestep


start timestep kper="2" kstp="392" mode="normal"


end timestep


start timestep kper="2" kstp="393" mode="normal"


end timestep


start timestep kper="2" kstp="394" mode="normal"


end timestep


start timestep kper="2" kstp="395" mode="normal"


end timestep


start timestep kper="2" kstp="396" mode="normal"


end timestep


start timestep kper="2" kstp="397" mode="normal"


end timestep


start timestep kper="2" kstp="398" mode="normal"


end timestep


start timestep kper="2" kstp="399" mode="normal"


end timestep


start timestep kper="2" kstp="400" mode="normal"


end timestep


start timestep kper="2" kstp="401" mode="normal"


end timestep


start timestep kper="2" kstp="402" mode="normal"


end timestep


start timestep kper="2" kstp="403" mode="normal"


end timestep


start timestep kper="2" kstp="404" mode="normal"


end timestep


start timestep kper="2" kstp="405" mode="normal"


end timestep


start timestep kper="2" kstp="406" mode="normal"


end timestep


start timestep kper="2" kstp="407" mode="normal"


end timestep


start timestep kper="2" kstp="408" mode="normal"


end timestep


start timestep kper="2" kstp="409" mode="normal"


end timestep


start timestep kper="2" kstp="410" mode="normal"


end timestep


start timestep kper="2" kstp="411" mode="normal"


end timestep


start timestep kper="2" kstp="412" mode="normal"


end timestep


start timestep kper="2" kstp="413" mode="normal"


end timestep


start timestep kper="2" kstp="414" mode="normal"


end timestep


start timestep kper="2" kstp="415" mode="normal"


end timestep


start timestep kper="2" kstp="416" mode="normal"


end timestep


start timestep kper="2" kstp="417" mode="normal"


end timestep


start timestep kper="2" kstp="418" mode="normal"


end timestep


start timestep kper="2" kstp="419" mode="normal"


end timestep


start timestep kper="2" kstp="420" mode="normal"


end timestep


start timestep kper="2" kstp="421" mode="normal"


end timestep


start timestep kper="2" kstp="422" mode="normal"


end timestep


start timestep kper="2" kstp="423" mode="normal"


end timestep


start timestep kper="2" kstp="424" mode="normal"


end timestep


start timestep kper="2" kstp="425" mode="normal"


end timestep


start timestep kper="2" kstp="426" mode="normal"


end timestep


start timestep kper="2" kstp="427" mode="normal"


end timestep


start timestep kper="2" kstp="428" mode="normal"


end timestep


start timestep kper="2" kstp="429" mode="normal"


end timestep


start timestep kper="2" kstp="430" mode="normal"


end timestep


start timestep kper="2" kstp="431" mode="normal"


end timestep


start timestep kper="2" kstp="432" mode="normal"


end timestep


start timestep kper="2" kstp="433" mode="normal"


end timestep


start timestep kper="2" kstp="434" mode="normal"


end timestep


start timestep kper="2" kstp="435" mode="normal"


end timestep


start timestep kper="2" kstp="436" mode="normal"


end timestep


start timestep kper="2" kstp="437" mode="normal"


end timestep


start timestep kper="2" kstp="438" mode="normal"


end timestep


start timestep kper="2" kstp="439" mode="normal"


end timestep


start timestep kper="2" kstp="440" mode="normal"


end timestep


start timestep kper="2" kstp="441" mode="normal"


end timestep


start timestep kper="2" kstp="442" mode="normal"


end timestep


start timestep kper="2" kstp="443" mode="normal"


end timestep


start timestep kper="2" kstp="444" mode="normal"


end timestep


start timestep kper="2" kstp="445" mode="normal"


end timestep


start timestep kper="2" kstp="446" mode="normal"


end timestep


start timestep kper="2" kstp="447" mode="normal"


end timestep


start timestep kper="2" kstp="448" mode="normal"


end timestep


start timestep kper="2" kstp="449" mode="normal"


end timestep


start timestep kper="2" kstp="450" mode="normal"


end timestep


start timestep kper="2" kstp="451" mode="normal"


end timestep


start timestep kper="2" kstp="452" mode="normal"


end timestep


start timestep kper="2" kstp="453" mode="normal"


end timestep


start timestep kper="2" kstp="454" mode="normal"


end timestep


start timestep kper="2" kstp="455" mode="normal"


end timestep


start timestep kper="2" kstp="456" mode="normal"


end timestep


start timestep kper="2" kstp="457" mode="normal"


end timestep


start timestep kper="2" kstp="458" mode="normal"


end timestep


start timestep kper="2" kstp="459" mode="normal"


end timestep


start timestep kper="2" kstp="460" mode="normal"


end timestep


start timestep kper="2" kstp="461" mode="normal"


end timestep


start timestep kper="2" kstp="462" mode="normal"


end timestep


start timestep kper="2" kstp="463" mode="normal"


end timestep


start timestep kper="2" kstp="464" mode="normal"


end timestep


start timestep kper="2" kstp="465" mode="normal"


end timestep


start timestep kper="2" kstp="466" mode="normal"


end timestep


start timestep kper="2" kstp="467" mode="normal"


end timestep


start timestep kper="2" kstp="468" mode="normal"


end timestep


start timestep kper="2" kstp="469" mode="normal"


end timestep


start timestep kper="2" kstp="470" mode="normal"


end timestep


start timestep kper="2" kstp="471" mode="normal"


end timestep


start timestep kper="2" kstp="472" mode="normal"


end timestep


start timestep kper="2" kstp="473" mode="normal"


end timestep


start timestep kper="2" kstp="474" mode="normal"


end timestep


start timestep kper="2" kstp="475" mode="normal"


end timestep


start timestep kper="2" kstp="476" mode="normal"


end timestep


start timestep kper="2" kstp="477" mode="normal"


end timestep


start timestep kper="2" kstp="478" mode="normal"


end timestep


start timestep kper="2" kstp="479" mode="normal"


end timestep


start timestep kper="2" kstp="480" mode="normal"


end timestep


start timestep kper="2" kstp="481" mode="normal"


end timestep


start timestep kper="2" kstp="482" mode="normal"


end timestep


start timestep kper="2" kstp="483" mode="normal"


end timestep


start timestep kper="2" kstp="484" mode="normal"


end timestep


start timestep kper="2" kstp="485" mode="normal"


end timestep


start timestep kper="2" kstp="486" mode="normal"


end timestep


start timestep kper="2" kstp="487" mode="normal"


end timestep


start timestep kper="2" kstp="488" mode="normal"


end timestep


start timestep kper="2" kstp="489" mode="normal"


end timestep


start timestep kper="2" kstp="490" mode="normal"


end timestep


start timestep kper="2" kstp="491" mode="normal"


end timestep


start timestep kper="2" kstp="492" mode="normal"


end timestep


start timestep kper="2" kstp="493" mode="normal"


end timestep


start timestep kper="2" kstp="494" mode="normal"


end timestep


start timestep kper="2" kstp="495" mode="normal"


end timestep


start timestep kper="2" kstp="496" mode="normal"


end timestep


start timestep kper="2" kstp="497" mode="normal"


end timestep


start timestep kper="2" kstp="498" mode="normal"


end timestep


start timestep kper="2" kstp="499" mode="normal"


end timestep


start timestep kper="2" kstp="500" mode="normal"


end timestep


start timestep kper="2" kstp="501" mode="normal"


end timestep


start timestep kper="2" kstp="502" mode="normal"


end timestep


start timestep kper="2" kstp="503" mode="normal"


end timestep


start timestep kper="2" kstp="504" mode="normal"


end timestep


start timestep kper="2" kstp="505" mode="normal"


end timestep


start timestep kper="2" kstp="506" mode="normal"


end timestep


start timestep kper="2" kstp="507" mode="normal"


end timestep


start timestep kper="2" kstp="508" mode="normal"


end timestep


start timestep kper="2" kstp="509" mode="normal"


end timestep


start timestep kper="2" kstp="510" mode="normal"


end timestep


start timestep kper="2" kstp="511" mode="normal"


end timestep


start timestep kper="2" kstp="512" mode="normal"


end timestep


start timestep kper="2" kstp="513" mode="normal"


end timestep


start timestep kper="2" kstp="514" mode="normal"


end timestep


start timestep kper="2" kstp="515" mode="normal"


end timestep


start timestep kper="2" kstp="516" mode="normal"


end timestep


start timestep kper="2" kstp="517" mode="normal"


end timestep


start timestep kper="2" kstp="518" mode="normal"


end timestep


start timestep kper="2" kstp="519" mode="normal"


end timestep


start timestep kper="2" kstp="520" mode="normal"


end timestep


start timestep kper="2" kstp="521" mode="normal"


end timestep


start timestep kper="2" kstp="522" mode="normal"


end timestep


start timestep kper="2" kstp="523" mode="normal"


end timestep


start timestep kper="2" kstp="524" mode="normal"


end timestep


start timestep kper="2" kstp="525" mode="normal"


end timestep


start timestep kper="2" kstp="526" mode="normal"


end timestep


start timestep kper="2" kstp="527" mode="normal"


end timestep


start timestep kper="2" kstp="528" mode="normal"


end timestep


start timestep kper="2" kstp="529" mode="normal"


end timestep


start timestep kper="2" kstp="530" mode="normal"


end timestep


start timestep kper="2" kstp="531" mode="normal"


end timestep


start timestep kper="2" kstp="532" mode="normal"


end timestep


start timestep kper="2" kstp="533" mode="normal"


end timestep


start timestep kper="2" kstp="534" mode="normal"


end timestep


start timestep kper="2" kstp="535" mode="normal"


end timestep


start timestep kper="2" kstp="536" mode="normal"


end timestep


start timestep kper="2" kstp="537" mode="normal"


end timestep


start timestep kper="2" kstp="538" mode="normal"


end timestep


start timestep kper="2" kstp="539" mode="normal"


end timestep


start timestep kper="2" kstp="540" mode="normal"


end timestep


start timestep kper="2" kstp="541" mode="normal"


end timestep


start timestep kper="2" kstp="542" mode="normal"


end timestep


start timestep kper="2" kstp="543" mode="normal"


end timestep


start timestep kper="2" kstp="544" mode="normal"


end timestep


start timestep kper="2" kstp="545" mode="normal"


end timestep


start timestep kper="2" kstp="546" mode="normal"


end timestep


start timestep kper="2" kstp="547" mode="normal"


end timestep


start timestep kper="2" kstp="548" mode="normal"


end timestep


start timestep kper="2" kstp="549" mode="normal"


end timestep


start timestep kper="2" kstp="550" mode="normal"


end timestep


start timestep kper="2" kstp="551" mode="normal"


end timestep


start timestep kper="2" kstp="552" mode="normal"


end timestep


start timestep kper="2" kstp="553" mode="normal"


end timestep


start timestep kper="2" kstp="554" mode="normal"


end timestep


start timestep kper="2" kstp="555" mode="normal"


end timestep


start timestep kper="2" kstp="556" mode="normal"


end timestep


start timestep kper="2" kstp="557" mode="normal"


end timestep


start timestep kper="2" kstp="558" mode="normal"


end timestep


start timestep kper="2" kstp="559" mode="normal"


end timestep


start timestep kper="2" kstp="560" mode="normal"


end timestep


start timestep kper="2" kstp="561" mode="normal"


end timestep


start timestep kper="2" kstp="562" mode="normal"


end timestep


start timestep kper="2" kstp="563" mode="normal"


end timestep


start timestep kper="2" kstp="564" mode="normal"


end timestep


start timestep kper="2" kstp="565" mode="normal"


end timestep


start timestep kper="2" kstp="566" mode="normal"


end timestep


start timestep kper="2" kstp="567" mode="normal"


end timestep


start timestep kper="2" kstp="568" mode="normal"


end timestep


start timestep kper="2" kstp="569" mode="normal"


end timestep


start timestep kper="2" kstp="570" mode="normal"


end timestep


start timestep kper="2" kstp="571" mode="normal"


end timestep


start timestep kper="2" kstp="572" mode="normal"


end timestep


start timestep kper="2" kstp="573" mode="normal"


end timestep


start timestep kper="2" kstp="574" mode="normal"


end timestep


start timestep kper="2" kstp="575" mode="normal"


end timestep


start timestep kper="2" kstp="576" mode="normal"


end timestep


start timestep kper="2" kstp="577" mode="normal"


end timestep


start timestep kper="2" kstp="578" mode="normal"


end timestep


start timestep kper="2" kstp="579" mode="normal"


end timestep


start timestep kper="2" kstp="580" mode="normal"


end timestep


start timestep kper="2" kstp="581" mode="normal"


end timestep


start timestep kper="2" kstp="582" mode="normal"


end timestep


start timestep kper="2" kstp="583" mode="normal"


end timestep


start timestep kper="2" kstp="584" mode="normal"


end timestep


start timestep kper="2" kstp="585" mode="normal"


end timestep


start timestep kper="2" kstp="586" mode="normal"


end timestep


start timestep kper="2" kstp="587" mode="normal"


end timestep


start timestep kper="2" kstp="588" mode="normal"


end timestep


start timestep kper="2" kstp="589" mode="normal"


end timestep


start timestep kper="2" kstp="590" mode="normal"


end timestep


start timestep kper="2" kstp="591" mode="normal"


end timestep


start timestep kper="2" kstp="592" mode="normal"


end timestep


start timestep kper="2" kstp="593" mode="normal"


end timestep


start timestep kper="2" kstp="594" mode="normal"


end timestep


start timestep kper="2" kstp="595" mode="normal"


end timestep


start timestep kper="2" kstp="596" mode="normal"


end timestep


start timestep kper="2" kstp="597" mode="normal"


end timestep


start timestep kper="2" kstp="598" mode="normal"


end timestep


start timestep kper="2" kstp="599" mode="normal"


end timestep


start timestep kper="2" kstp="600" mode="normal"


end timestep


start timestep kper="2" kstp="601" mode="normal"


end timestep


start timestep kper="2" kstp="602" mode="normal"


end timestep


start timestep kper="2" kstp="603" mode="normal"


end timestep


start timestep kper="2" kstp="604" mode="normal"


end timestep


start timestep kper="2" kstp="605" mode="normal"


end timestep


start timestep kper="2" kstp="606" mode="normal"


end timestep


start timestep kper="2" kstp="607" mode="normal"


end timestep


start timestep kper="2" kstp="608" mode="normal"


end timestep


start timestep kper="2" kstp="609" mode="normal"


end timestep


start timestep kper="2" kstp="610" mode="normal"


end timestep


start timestep kper="2" kstp="611" mode="normal"


end timestep


start timestep kper="2" kstp="612" mode="normal"


end timestep


start timestep kper="2" kstp="613" mode="normal"


end timestep


start timestep kper="2" kstp="614" mode="normal"


end timestep


start timestep kper="2" kstp="615" mode="normal"


end timestep


start timestep kper="2" kstp="616" mode="normal"


end timestep


start timestep kper="2" kstp="617" mode="normal"


end timestep


start timestep kper="2" kstp="618" mode="normal"


end timestep


start timestep kper="2" kstp="619" mode="normal"


end timestep


start timestep kper="2" kstp="620" mode="normal"


end timestep


start timestep kper="2" kstp="621" mode="normal"


end timestep


start timestep kper="2" kstp="622" mode="normal"


end timestep


start timestep kper="2" kstp="623" mode="normal"


end timestep


start timestep kper="2" kstp="624" mode="normal"


end timestep


start timestep kper="2" kstp="625" mode="normal"


end timestep


start timestep kper="2" kstp="626" mode="normal"


end timestep


start timestep kper="2" kstp="627" mode="normal"


end timestep


start timestep kper="2" kstp="628" mode="normal"


end timestep


start timestep kper="2" kstp="629" mode="normal"


end timestep


start timestep kper="2" kstp="630" mode="normal"


end timestep


start timestep kper="2" kstp="631" mode="normal"


end timestep


start timestep kper="2" kstp="632" mode="normal"


end timestep


start timestep kper="2" kstp="633" mode="normal"


end timestep


start timestep kper="2" kstp="634" mode="normal"


end timestep


start timestep kper="2" kstp="635" mode="normal"


end timestep


start timestep kper="2" kstp="636" mode="normal"


end timestep


start timestep kper="2" kstp="637" mode="normal"


end timestep


start timestep kper="2" kstp="638" mode="normal"


end timestep


start timestep kper="2" kstp="639" mode="normal"


end timestep


start timestep kper="2" kstp="640" mode="normal"


end timestep


start timestep kper="2" kstp="641" mode="normal"


end timestep


start timestep kper="2" kstp="642" mode="normal"


end timestep


start timestep kper="2" kstp="643" mode="normal"


end timestep


start timestep kper="2" kstp="644" mode="normal"


end timestep


start timestep kper="2" kstp="645" mode="normal"


end timestep


start timestep kper="2" kstp="646" mode="normal"


end timestep


start timestep kper="2" kstp="647" mode="normal"


end timestep


start timestep kper="2" kstp="648" mode="normal"


end timestep


start timestep kper="2" kstp="649" mode="normal"


end timestep


start timestep kper="2" kstp="650" mode="normal"


end timestep


start timestep kper="2" kstp="651" mode="normal"


end timestep


start timestep kper="2" kstp="652" mode="normal"


end timestep


start timestep kper="2" kstp="653" mode="normal"


end timestep


start timestep kper="2" kstp="654" mode="normal"


end timestep


start timestep kper="2" kstp="655" mode="normal"


end timestep


start timestep kper="2" kstp="656" mode="normal"


end timestep


start timestep kper="2" kstp="657" mode="normal"


end timestep


start timestep kper="2" kstp="658" mode="normal"


end timestep


start timestep kper="2" kstp="659" mode="normal"


end timestep


start timestep kper="2" kstp="660" mode="normal"


end timestep


start timestep kper="2" kstp="661" mode="normal"


end timestep


start timestep kper="2" kstp="662" mode="normal"


end timestep


start timestep kper="2" kstp="663" mode="normal"


end timestep


start timestep kper="2" kstp="664" mode="normal"


end timestep


start timestep kper="2" kstp="665" mode="normal"


end timestep


start timestep kper="2" kstp="666" mode="normal"


end timestep


start timestep kper="2" kstp="667" mode="normal"


end timestep


start timestep kper="2" kstp="668" mode="normal"


end timestep


start timestep kper="2" kstp="669" mode="normal"


end timestep


start timestep kper="2" kstp="670" mode="normal"


end timestep


start timestep kper="2" kstp="671" mode="normal"


end timestep


start timestep kper="2" kstp="672" mode="normal"


end timestep


start timestep kper="2" kstp="673" mode="normal"


end timestep


start timestep kper="2" kstp="674" mode="normal"


end timestep


start timestep kper="2" kstp="675" mode="normal"


end timestep


start timestep kper="2" kstp="676" mode="normal"


end timestep


start timestep kper="2" kstp="677" mode="normal"


end timestep


start timestep kper="2" kstp="678" mode="normal"


end timestep


start timestep kper="2" kstp="679" mode="normal"


end timestep


start timestep kper="2" kstp="680" mode="normal"


end timestep
[...]
         2.716159E-03    4.636410E-03    7.616121E-03    1.201481E-02    1.816861E-02    2.630008E-02    3.642469E-02    4.828915E-02    6.136210E-02    7.487815E-02
         8.792470E-02    9.955391E-02    0.108900        0.115283        0.118285        0.117784        0.113953        0.107219        9.819591E-02    8.760058E-02
         7.617155E-02    6.459506E-02    5.345023E-02    4.317644E-02    3.406260E-02    2.625531E-02    1.978012E-02    1.457034E-02    1.049759E-02    7.400076E-03
         5.105755E-03    3.449464E-03    2.284146E-03    1.487883E-03    9.703629E-04    6.875148E-04
  10     6.619125E-06    1.425606E-05    3.135957E-05    6.853683E-05    1.469968E-04    3.077181E-04    6.269816E-04    1.241078E-03    2.382567E-03    4.427855E-03
         7.949222E-03    1.375231E-02    2.286367E-02    3.642080E-02    5.542968E-02    8.041776E-02    0.111117        0.146353        0.184153        0.222001    
         0.257171        0.287070        0.309541        0.323090        0.327019        0.321442        0.307216        0.285781        0.258965        0.228759    
         0.197109        0.165752        0.136093        0.109149        8.554110E-02    6.553249E-02    4.909184E-02    3.597253E-02    2.579143E-02    1.809898E-02
         1.243494E-02    8.367977E-03    5.520552E-03    3.583435E-03    2.329149E-03    1.645474E-03
  11     1.554672E-05    3.374843E-05    7.506383E-05    1.661277E-04    3.612181E-04    7.674293E-04    1.588758E-03    3.198915E-03    6.252916E-03    1.184103E-02
         2.166792E-02    3.819488E-02    6.461163E-02    0.104432        0.160531        0.233744        0.321793        0.419592        0.520275        0.616329    
         0.700611        0.767150        0.811686        0.831960        0.827756        0.800722        0.754033        0.691933        0.619230        0.540797    
         0.461151        0.384125        0.312672        0.248795        0.193580        0.147324        0.109697        7.993586E-02    5.701926E-02    3.982422E-02
         2.724189E-02    1.825792E-02    1.199965E-02    7.761307E-03    5.027494E-03    3.541468E-03
  12     3.263086E-05    7.147377E-05    1.610044E-04    3.615603E-04    7.989444E-04    1.727856E-03    3.647707E-03    7.503513E-03    1.501212E-02    2.914533E-02
         5.474708E-02    9.911036E-02    0.172036        0.284460        0.444565        0.651493        0.891172         1.14288         1.38509         1.59883    
          1.76941         1.88712         1.94725         1.94976         1.89859         1.80088         1.66598         1.50443         1.32704         1.14400    
         0.964198        0.794766        0.640850        0.505607        0.390388        0.295045        0.218309        0.158170        0.112235        7.801438E-02
         5.313184E-02    3.546578E-02    2.322187E-02    1.496710E-02    9.662860E-03    6.787466E-03
  13     6.029861E-05    1.333880E-04    3.047216E-04    6.955733E-04    1.565631E-03    3.457080E-03    7.471443E-03    1.578006E-02    3.251719E-02    6.523274E-02
         0.127000        0.238862        0.431162        0.739903         1.19121         1.76891         2.38823         2.97308         3.47144         3.85283    
          4.10350         4.22193         4.21542         4.09742         3.88555         3.59991         3.26171         2.89189         2.50999         2.13315    
          1.77540         1.44723         1.15550        0.903698        0.692335        0.519611        0.382069        0.275263        0.194332        0.134458    
         9.118910E-02    6.063615E-02    3.956289E-02    2.541586E-02    1.635799E-02    1.146030E-02
  14     9.626418E-05    2.150937E-04    4.984825E-04    1.157398E-03    2.656938E-03    6.002279E-03    1.332128E-02    2.901903E-02    6.198784E-02    0.129641    
         0.264755        0.525656         1.00728         1.84035         3.13978         4.82225         6.29672         7.39730         8.11211         8.48006    
          8.55443         8.38897         8.03312         7.53131         6.92353         6.24598         5.53144         4.80915         4.10441         3.43800    
          2.82580         2.27860         1.80218         1.39786         1.06318        0.792858        0.579699        0.415549        0.292055        0.201258    
         0.135997        9.013352E-02    5.863224E-02    3.756193E-02    2.411256E-02    1.685613E-02
  15     1.297319E-04    2.923345E-04    6.858553E-04    1.616399E-03    3.777472E-03    8.719210E-03    1.986323E-02    4.467262E-02    9.923290E-02    0.217759    
         0.471804         1.00725         2.10862         4.28322         8.24370         14.1071         16.5349         17.2250         16.9918         16.2572    
          15.2490         14.0925         12.8588         11.5913         10.3201         9.06949         7.86098         6.71416         5.64633         4.67163    
          3.80018         3.03754         2.38457         1.83779         1.39009         1.03169        0.751169        0.536490        0.375832        0.258243    
         0.174055        0.115090        7.470958E-02    4.776983E-02    3.061064E-02    2.136661E-02
  16     1.440028E-04    3.257364E-04    7.685914E-04    1.824550E-03    4.303107E-03    1.005011E-02    2.325128E-02    5.338088E-02    0.121940        0.278116    
         0.636041         1.46627         3.42905         8.19697         20.2172         51.4211         40.4666         32.9935         27.6627         23.6854    
          20.5680         18.0038         15.8032         13.8508         12.0794         10.4526         8.95365         7.57806         6.32738         5.20533    
          4.21485         3.35630         2.62659         2.01903         1.52381         1.12880        0.820541        0.585211        0.409459        0.281044    
         0.189241        0.125024        8.109598E-02    5.181699E-02    3.318246E-02    2.314919E-02
  17     1.297319E-04    2.923345E-04    6.858553E-04    1.616399E-03    3.777472E-03    8.719210E-03    1.986323E-02    4.467262E-02    9.923290E-02    0.217759    
         0.471804         1.00725         2.10862         4.28322         8.24370         14.1071         16.5349         17.2250         16.9918         16.2572    
          15.2490         14.0925         12.8588         11.5913         10.3201         9.06949         7.86098         6.71416         5.64633         4.67163    
          3.80018         3.03754         2.38457         1.83779         1.39009         1.03169        0.751169        0.536490        0.375832        0.258243    
         0.174055        0.115090        7.470958E-02    4.776983E-02    3.061064E-02    2.136661E-02
  18     9.626418E-05    2.150937E-04    4.984825E-04    1.157398E-03    2.656938E-03    6.002279E-03    1.332128E-02    2.901903E-02    6.198784E-02    0.129641    
         0.264755        0.525656         1.00728         1.84035         3.13978         4.82225         6.29672         7.39730         8.11211         8.48006    
          8.55443         8.38897         8.03312         7.53131         6.92353         6.24598         5.53144         4.80915         4.10441         3.43800    
          2.82580         2.27860         1.80218         1.39786         1.06318        0.792858        0.579699        0.415549        0.292055        0.201258    
         0.135997        9.013352E-02    5.863224E-02    3.756193E-02    2.411256E-02    1.685613E-02
  19     6.029861E-05    1.333880E-04    3.047216E-04    6.955733E-04    1.565631E-03    3.457080E-03    7.471443E-03    1.578006E-02    3.251719E-02    6.523274E-02
         0.127000        0.238862        0.431162        0.739903         1.19121         1.76891         2.38823         2.97308         3.47144         3.85283    
          4.10350         4.22193         4.21542         4.09742         3.88555         3.59991         3.26171         2.89189         2.50999         2.13315    
          1.77540         1.44723         1.15550        0.903698        0.692335        0.519611        0.382069        0.275263        0.194332        0.134458    
         9.118910E-02    6.063615E-02    3.956289E-02    2.541586E-02    1.635799E-02    1.146030E-02
  20     3.263086E-05    7.147377E-05    1.610044E-04    3.615603E-04    7.989444E-04    1.727856E-03    3.647707E-03    7.503513E-03    1.501212E-02    2.914533E-02
         5.474708E-02    9.911036E-02    0.172036        0.284460        0.444565        0.651493        0.891172         1.14288         1.38509         1.59883    
          1.76941         1.88712         1.94725         1.94976         1.89859         1.80088         1.66598         1.50443         1.32704         1.14400    
         0.964198        0.794766        0.640850        0.505607        0.390388        0.295045        0.218309        0.158170        0.112235        7.801438E-02
         5.313184E-02    3.546578E-02    2.322187E-02    1.496710E-02    9.662860E-03    6.787466E-03
  21     1.554672E-05    3.374843E-05    7.506383E-05    1.661277E-04    3.612181E-04    7.674293E-04    1.588758E-03    3.198915E-03    6.252916E-03    1.184103E-02
         2.166792E-02    3.819488E-02    6.461163E-02    0.104432        0.160531        0.233744        0.321793        0.419592        0.520275        0.616329    
         0.700611        0.767150        0.811686        0.831960        0.827756        0.800722        0.754033        0.691933        0.619230        0.540797    
         0.461151        0.384125        0.312672        0.248795        0.193580        0.147324        0.109697        7.993586E-02    5.701926E-02    3.982422E-02
         2.724189E-02    1.825792E-02    1.199965E-02    7.761307E-03    5.027494E-03    3.541468E-03
  22     6.619125E-06    1.425606E-05    3.135957E-05    6.853683E-05    1.469968E-04    3.077181E-04    6.269816E-04    1.241078E-03    2.382567E-03    4.427855E-03
         7.949222E-03    1.375231E-02    2.286367E-02    3.642080E-02    5.542968E-02    8.041776E-02    0.111117        0.146353        0.184153        0.222001    
         0.257171        0.287070        0.309541        0.323090        0.327019        0.321442        0.307216        0.285781        0.258965        0.228759    
         0.197109        0.165752        0.136093        0.109149        8.554110E-02    6.553249E-02    4.909184E-02    3.597253E-02    2.579143E-02    1.809898E-02
         1.243494E-02    8.367977E-03    5.520552E-03    3.583435E-03    2.329149E-03    1.645474E-03
  23     2.548037E-06    5.450909E-06    1.187740E-05    2.568283E-05    5.445681E-05    1.126183E-04    2.265266E-04    4.423835E-04    8.374726E-04    1.534410E-03
         2.716159E-03    4.636410E-03    7.616121E-03    1.201481E-02    1.816861E-02    2.630008E-02    3.642469E-02    4.828915E-02    6.136210E-02    7.487815E-02
         8.792470E-02    9.955391E-02    0.108900        0.115283        0.118285        0.117784        0.113953        0.107219        9.819591E-02    8.760058E-02
         7.617155E-02    6.459506E-02    5.345023E-02    4.317644E-02    3.406260E-02    2.625531E-02    1.978012E-02    1.457034E-02    1.049759E-02    7.400076E-03
         5.105755E-03    3.449464E-03    2.284146E-03    1.487883E-03    9.703629E-04    6.875148E-04
  24     8.952181E-07    1.904083E-06    4.115588E-06    8.819432E-06    1.852246E-05    3.792327E-05    7.549007E-05    1.458488E-04    2.731048E-04    4.949601E-04
         8.669636E-04    1.465430E-03    2.386675E-03    3.739740E-03    5.630600E-03    8.138536E-03    1.128943E-02    1.503366E-02    1.923552E-02    2.367779E-02
         2.808151E-02    3.213755E-02    3.554450E-02    3.804623E-02    3.946292E-02    3.971066E-02    3.880724E-02    3.686411E-02    3.406699E-02    3.064914E-02
         2.686217E-02    2.294871E-02    1.912072E-02    1.554513E-02    1.233757E-02    9.563070E-03    7.242287E-03    5.360856E-03    3.880032E-03    2.746868E-03
         1.902845E-03    1.290428E-03    8.575409E-04    5.605030E-04    3.667506E-04    2.605806E-04
  25     2.892661E-07    6.122313E-07    1.314241E-06    2.794949E-06    5.823144E-06    1.182415E-05    2.333808E-05    4.470241E-05    8.298640E-05    1.491323E-04
         2.591215E-04    4.347850E-04    7.036651E-04    1.097230E-03    1.646914E-03    2.378021E-03    3.302429E-03    4.411788E-03    5.673122E-03    7.028323E-03
         8.398124E-03    9.690187E-03    1.080999E-02    1.167264E-02    1.221353E-02    1.239609E-02    1.221531E-02    1.169687E-02    1.089224E-02    9.870816E-03
         8.710797E-03    7.490135E-03    6.278948E-03    5.134189E-03    4.096878E-03    3.191736E-03    2.428737E-03    1.805893E-03    1.312602E-03    9.329766E-04
         6.487471E-04    4.415268E-04    2.944098E-04    1.930592E-04    1.267233E-04    9.028332E-05
  26     8.651382E-08    1.823351E-07    3.891123E-07    8.221667E-07    1.701439E-06    3.431107E-06    6.725013E-06    1.279129E-05    2.358219E-05    4.209630E-05
         7.268609E-05    1.212756E-04    1.953428E-04    3.034962E-04    4.545078E-04    6.557886E-04    9.114844E-04    1.220569E-03    1.575417E-03    1.961305E-03
         2.357107E-03    2.737214E-03    3.074407E-03    3.343206E-03    3.523110E-03    3.601160E-03    3.573375E-03    3.444902E-03    3.228900E-03    2.944466E-03
         2.614006E-03    2.260529E-03    1.905268E-03    1.565919E-03    1.255632E-03    9.827371E-04    7.510802E-04    5.607817E-04    4.092021E-04    2.919385E-04
         2.037188E-04    1.391149E-04    9.306039E-05    6.121384E-05    4.030215E-05    2.878789E-05
  27     2.407956E-08    5.056521E-08    1.073635E-07    2.255956E-07    4.641946E-07    9.306747E-07    1.813548E-06    3.429602E-06    6.287347E-06    1.116328E-05
         1.917944E-05    3.185936E-05    5.112804E-05    7.921499E-05    1.184264E-04    1.707776E-04    2.375201E-04    3.186440E-04    4.124714E-04    5.154599E-04
         6.223016E-04    7.263496E-04    8.203233E-04    8.971849E-04    9.510338E-04    9.778579E-04    9.760118E-04    9.463474E-04    8.919928E-04    8.178414E-04
         7.298599E-04    6.343415E-04    5.372259E-04    4.435739E-04    3.572434E-04    2.807735E-04    2.154455E-04    1.614718E-04    1.182540E-04    8.465889E-05
         5.927175E-05    4.060350E-05    2.724416E-05    1.797364E-05    1.186767E-05    8.498196E-06
  28     6.266510E-09    1.311758E-08    2.772987E-08    5.798805E-08    1.187336E-07    2.368794E-07    4.593333E-07    8.644715E-07    1.577442E-06    2.788483E-06
         4.771570E-06    7.898122E-06    1.263791E-05    1.953773E-05    2.916978E-05    4.204670E-05    5.850964E-05    7.860645E-05    1.019860E-04    1.278377E-04
         1.549000E-04    1.815497E-04    2.059648E-04    2.263379E-04    2.411045E-04    2.491440E-04    2.499179E-04    2.435230E-04    2.306536E-04    2.124844E-04
         1.905010E-04    1.663088E-04    1.414538E-04    1.172786E-04    9.482913E-05    7.481502E-05    5.761791E-05    4.333499E-05    3.184323E-05    2.287037E-05
         1.606170E-05    1.103566E-05    7.425970E-06    4.912788E-06    3.252732E-06    2.334743E-06
  29     1.531575E-09    3.197114E-09    6.732507E-09    1.401998E-08    2.858444E-08    5.678539E-08    1.096521E-07    2.055266E-07    3.735718E-07    6.579605E-07
         1.122145E-06    1.852054E-06    2.956476E-06    4.562567E-06    6.804612E-06    9.805240E-06    1.365019E-05    1.836015E-05    2.386521E-05    2.998875E-05
         3.644637E-05    4.286354E-05    4.881123E-05    5.385479E-05    5.760817E-05    5.978365E-05    6.022814E-05    5.893985E-05    5.606311E-05    5.186338E-05
         4.668823E-05    4.092186E-05    3.494088E-05    2.907793E-05    2.359702E-05    1.868186E-05    1.443612E-05    1.089281E-05    8.029260E-06    5.784148E-06
         4.073976E-06    2.806997E-06    1.893981E-06    1.256326E-06    8.339853E-07    5.999746E-07
  30     3.555433E-10    7.403259E-10    1.553578E-09    3.223081E-09    6.546388E-09    1.295608E-08    2.492613E-08    4.655445E-08    8.433344E-08    1.480683E-07
         2.518154E-07    4.145949E-07    6.605112E-07    1.017838E-06    1.516659E-06    2.184874E-06    3.042736E-06    4.096637E-06    5.333292E-06    6.715773E-06
         8.182739E-06    9.651746E-06    1.102667E-05    1.220839E-05    1.310693E-05    1.365308E-05    1.380720E-05    1.356383E-05    1.295125E-05    1.202651E-05
         1.086687E-05    9.559555E-06    8.191513E-06    6.840709E-06    5.570054E-06    4.424286E-06    3.429656E-06    2.595816E-06    1.919112E-06    1.386481E-06
         9.792707E-07    6.765487E-07    4.576918E-07    3.043821E-07    2.025733E-07    1.460552E-07
  31     9.251482E-11    1.921597E-10    4.018643E-10    8.306293E-10    1.680802E-09    3.314316E-09    6.353694E-09    1.182626E-08    2.135428E-08    3.738132E-08
         6.340412E-08    1.041514E-07    1.656219E-07    2.548755E-07    3.794767E-07    5.465368E-07    7.613888E-07    1.026048E-06    1.337734E-06    1.687798E-06
         2.061410E-06    2.438237E-06    2.794173E-06    3.103932E-06    3.344106E-06    3.496163E-06    3.548830E-06    3.499445E-06    3.354057E-06    3.126315E-06
         2.835407E-06    2.503472E-06    2.152949E-06    1.804273E-06    1.474198E-06    1.174890E-06    9.137428E-07    6.937896E-07    5.145130E-07    3.728329E-07
         2.641017E-07    1.829789E-07    1.241307E-07    8.277728E-08    5.523962E-08    3.992157E-08

 CONCENTRATION WILL BE SAVED ON UNIT 1029 AT END OF TIME STEP  730, STRESS PERIOD    2


  MASS BUDGET FOR ENTIRE MODEL AT END OF TIME STEP  730, STRESS PERIOD   2
  ---------------------------------------------------------------------------------------------------

     CUMULATIVE MASS      M       RATES FOR THIS TIME STEP      M/T          PACKAGE NAME    
     ------------------                 ------------------------                     ----------------

           IN:                                      IN:
           ---                                      ---
     STORAGE-AQUEOUS =           0.0000       STORAGE-AQUEOUS =           0.0000     MST                              
                 WEL =      366000.0000                   WEL =        1000.0000     SSM_WEL-1                        
                 CHD =           0.0000                   CHD =           0.0000     SSM_CHD-1                        
                 CNC =           0.0000                   CNC =           0.0000     CNC-1                            

            TOTAL IN =      366000.0000              TOTAL IN =        1000.0000

          OUT:                                     OUT:
          ----                                     ----
     STORAGE-AQUEOUS =      365955.3495       STORAGE-AQUEOUS =         998.5122     MST                              
                 WEL =           0.0000                   WEL =           0.0000     SSM_WEL-1                        
                 CHD =          44.6505                   CHD =           1.4878     SSM_CHD-1                        
                 CNC =       7.3493E-08                   CNC =       2.4497E-09     CNC-1                            

           TOTAL OUT =      366000.0000             TOTAL OUT =        1000.0000

            IN - OUT =       3.6071E-07              IN - OUT =       3.8995E-11

 PERCENT DISCREPANCY =           0.00     PERCENT DISCREPANCY =           0.00




         TIME SUMMARY AT END OF TIME STEP  730 IN STRESS PERIOD    2
                    SECONDS     MINUTES      HOURS       DAYS        YEARS
                    -----------------------------------------------------------
   TIME STEP LENGTH  43200.      720.00      12.000     0.50000     1.36893E-03
 STRESS PERIOD TIME 3.15360E+07 5.25600E+05  8760.0      365.00     0.99932    
         TOTAL TIME 3.16224E+07 5.27040E+05  8784.0      366.00      1.0021    


end timestep

