                                  MODFLOW-2005     
      U.S. GEOLOGICAL SURVEY MODULAR FINITE-DIFFERENCE GROUND-WATER FLOW MODEL
                       VERSION 1.6.01 3/4/2009, with FMP2

 LIST FILE: p10_mf.list
                         UNIT    2

 OPENING p10_mf.dis
 FILE TYPE:DIS   UNIT   11   STATUS:OLD    
 FORMAT:FORMATTED              ACCESS:SEQUENTIAL          

 OPENING p10_mf.bas
 FILE TYPE:BAS6   UNIT   13   STATUS:OLD    
 FORMAT:FORMATTED              ACCESS:SEQUENTIAL          

 OPENING p10_mf.lpf
 FILE TYPE:LPF   UNIT   15   STATUS:OLD    
 FORMAT:FORMATTED              ACCESS:SEQUENTIAL          

 OPENING p10_mf.wel
 FILE TYPE:WEL   UNIT   20   STATUS:OLD    
 FORMAT:FORMATTED              ACCESS:SEQUENTIAL          

 OPENING p10_mf.rch
 FILE TYPE:RCH   UNIT   19   STATUS:OLD    
 FORMAT:FORMATTED              ACCESS:SEQUENTIAL          

 OPENING p10_mf.pcg
 FILE TYPE:PCG   UNIT   27   STATUS:OLD    
 FORMAT:FORMATTED              ACCESS:SEQUENTIAL          

 OPENING p10_mf.lmt6
 FILE TYPE:LMT6   UNIT   30   STATUS:OLD    
 FORMAT:FORMATTED              ACCESS:SEQUENTIAL          

 BAS -- BASIC PACKAGE, VERSION 7, 5/2/2005 INPUT READ FROM UNIT   13

 DISCRETIZATION INPUT DATA READ FROM UNIT   11
 # DIS package for MODFLOW-2005 generated by Flopy 3.9.1
    4 LAYERS        61 ROWS        40 COLUMNS
    1 STRESS PERIOD(S) IN SIMULATION
 MODEL TIME UNIT IS DAYS
 MODEL LENGTH UNIT IS METERS
  Confining bed flag for each layer:
   0   0   0   0



                               DELR
 READING ON UNIT   11 WITH FORMAT: (40E15.6)           



                               DELC
 READING ON UNIT   11 WITH FORMAT: (61E15.6)           

 TOP ELEVATION OF LAYER 1 =   780.000    

   MODEL LAYER BOTTOM EL. =   755.000     FOR LAYER   1

   MODEL LAYER BOTTOM EL. =   730.000     FOR LAYER   2

   MODEL LAYER BOTTOM EL. =   705.000     FOR LAYER   3

   MODEL LAYER BOTTOM EL. =   680.000     FOR LAYER   4


 STRESS PERIOD     LENGTH       TIME STEPS     MULTIPLIER FOR DELT    SS FLAG
 ----------------------------------------------------------------------------
        1         2000.000          1                    1.000         SS

 STEADY-STATE SIMULATION



 
 # BAS6 package for MODFLOW-2005 generated by Flopy 3.9.1                        
 THE FREE FORMAT OPTION HAS BEEN SELECTED



                     BOUNDARY ARRAY FOR LAYER   1
 READING ON UNIT   13 WITH FORMAT: (40I10)             



                     BOUNDARY ARRAY FOR LAYER   2
 READING ON UNIT   13 WITH FORMAT: (40I10)             



                     BOUNDARY ARRAY FOR LAYER   3
 READING ON UNIT   13 WITH FORMAT: (40I10)             



                     BOUNDARY ARRAY FOR LAYER   4
 READING ON UNIT   13 WITH FORMAT: (40I10)             

 AQUIFER HEAD WILL BE SET TO  -999.99     AT ALL NO-FLOW NODES (IBOUND=0).



                       INITIAL HEAD FOR LAYER   1
 READING ON UNIT   13 WITH FORMAT: (40E15.6)           



                       INITIAL HEAD FOR LAYER   2
 READING ON UNIT   13 WITH FORMAT: (40E15.6)           



                       INITIAL HEAD FOR LAYER   3
 READING ON UNIT   13 WITH FORMAT: (40E15.6)           



                       INITIAL HEAD FOR LAYER   4
 READING ON UNIT   13 WITH FORMAT: (40E15.6)           

 DEFAULT OUTPUT CONTROL
 THE FOLLOWING OUTPUT COMES AT THE END OF EACH STRESS PERIOD:
 TOTAL VOLUMETRIC BUDGET
           HEAD

 LPF -- LAYER-PROPERTY FLOW PACKAGE, VERSION 7, 5/2/2005
         INPUT READ FROM UNIT   15
 # LPF package for MODFLOW-2005 generated by Flopy 3.9.1
 HEAD AT CELLS THAT CONVERT TO DRY= -1.00000E+30
 No named parameters

   LAYER FLAGS:
 LAYER       LAYTYP        LAYAVG         CHANI        LAYVKA        LAYWET
 ---------------------------------------------------------------------------
    1             0             0     1.000E+00             1             0
    2             0             0     1.000E+00             1             0
    3             0             0     1.000E+00             1             0
    4             0             0     1.000E+00             1             0

   INTERPRETATION OF LAYER FLAGS:
                        INTERBLOCK     HORIZONTAL    DATA IN
         LAYER TYPE   TRANSMISSIVITY   ANISOTROPY   ARRAY VKA   WETTABILITY
 LAYER      (LAYTYP)      (LAYAVG)       (CHANI)      (LAYVKA)      (LAYWET)
 ---------------------------------------------------------------------------
    1      CONFINED      HARMONIC     1.000E+00    ANISOTROPY  NON-WETTABLE
    2      CONFINED      HARMONIC     1.000E+00    ANISOTROPY  NON-WETTABLE
    3      CONFINED      HARMONIC     1.000E+00    ANISOTROPY  NON-WETTABLE
    4      CONFINED      HARMONIC     1.000E+00    ANISOTROPY  NON-WETTABLE

 WETTING CAPABILITY IS NOT ACTIVE IN ANY LAYER

    HYD. COND. ALONG ROWS =   60.0000     FOR LAYER   1

  HORIZ. TO VERTICAL ANI. =  0.100000     FOR LAYER   1

    HYD. COND. ALONG ROWS =   60.0000     FOR LAYER   2

  HORIZ. TO VERTICAL ANI. =  0.100000     FOR LAYER   2

    HYD. COND. ALONG ROWS =   520.000     FOR LAYER   3

  HORIZ. TO VERTICAL ANI. =  0.100000     FOR LAYER   3

    HYD. COND. ALONG ROWS =   520.000     FOR LAYER   4

  HORIZ. TO VERTICAL ANI. =  0.100000     FOR LAYER   4

 WEL -- WELL PACKAGE, VERSION 7, 5/2/2005 INPUT READ FROM UNIT   20
 # WEL package for MODFLOW-2005 generated by Flopy 3.9.1
 No named parameters
 MAXIMUM OF      8 ACTIVE WELLS AT ONE TIME


     0 Well parameters

 RCH -- RECHARGE PACKAGE, VERSION 7, 5/2/2005 INPUT READ FROM UNIT   19
 # RCH package for MODFLOW-2005 generated by Flopy 3.9.1
 No named parameters
 OPTION 3 -- RECHARGE TO HIGHEST ACTIVE NODE IN EACH VERTICAL COLUMN


     0 Recharge parameters

 PCG -- CONJUGATE-GRADIENT SOLUTION PACKAGE, VERSION 7, 5/2/2005
 # PCG package for MODFLOW-2005 generated by Flopy 3.9.1
 MAXIMUM OF     50 CALLS OF SOLUTION ROUTINE
 MAXIMUM OF     30 INTERNAL ITERATIONS PER CALL TO SOLUTION ROUTINE
 MATRIX PRECONDITIONING TYPE :    1



                                    SOLUTION BY THE CONJUGATE-GRADIENT METHOD
                                   -------------------------------------------
                    MAXIMUM NUMBER OF CALLS TO PCG ROUTINE =       50
                        MAXIMUM ITERATIONS PER CALL TO PCG =       30
                               MATRIX PRECONDITIONING TYPE =        1
        RELAXATION FACTOR (ONLY USED WITH PRECOND. TYPE 1) =    0.10000E+01
 PARAMETER OF POLYNOMIAL PRECOND. = 2 (2) OR IS CALCULATED :        0
                         HEAD CHANGE CRITERION FOR CLOSURE =    0.10000E-04
                     RESIDUAL CHANGE CRITERION FOR CLOSURE =    0.10000E-04
            PCG HEAD AND RESIDUAL CHANGE PRINTOUT INTERVAL =      999
     PRINTING FROM SOLVER IS LIMITED(1) OR SUPPRESSED (>1) =        3
                            STEADY-STATE DAMPING PARAMETER =    0.10000E+01
                               TRANSIENT DAMPING PARAMETER =    0.10000E+01
1
                            STRESS PERIOD NO.    1, LENGTH =   2000.000    
                            -----------------------------------------------

                              NUMBER OF TIME STEPS =     1

                               MULTIPLIER FOR DELT =     1.000

                            INITIAL TIME STEP SIZE =   2000.000    

 WELL NO.  LAYER   ROW   COL   STRESS RATE         
 --------------------------------------------------
      1      3     11     29     -0.1923E+05
      2      3     19     26     -0.1923E+05
      3      3     26     23     -0.1923E+05
      4      3     33     20     -0.1923E+05
      5      3     40     17     -0.1923E+05
      6      3     48     14     -0.1923E+05
      7      3     48      9     -0.1538E+05
      8      3     52     17     -0.1731E+05

      8 WELLS

                 RECHARGE =  1.140000E-03
 
 SOLVING FOR HEAD 

 MAXIMUM HEAD CHANGE FOR EACH ITERATION (1 INDICATES THE FIRST INNER ITERATION):

    HEAD CHANGE    HEAD CHANGE    HEAD CHANGE    HEAD CHANGE    HEAD CHANGE 
   LAYER,ROW,COL  LAYER,ROW,COL  LAYER,ROW,COL  LAYER,ROW,COL  LAYER,ROW,COL
 ---------------------------------------------------------------------------
  1 -0.8211      0 -0.4991      0 -0.3331      0 -0.2351      0 -0.1776    
   (  3, 48, 14)  (  3, 40, 17)  (  3, 19, 26)  (  3, 33, 20)  (  3, 26, 23)
  0  0.9295E-01  0  0.6070E-01  0 -0.3575E-01  0 -0.3415E-01  0 -0.2976E-01
   (  4, 40,  5)  (  1,  7, 39)  (  4, 38, 18)  (  4, 42, 12)  (  4, 45, 11)
  0 -0.3028E-01  0 -0.2029E-01  0 -0.1159E-01  0 -0.1040E-01  0 -0.8881E-02
   (  4,  9,  7)  (  4,  7, 15)  (  4, 41,  7)  (  4, 11,  3)  (  4, 43,  5)
  0  0.6687E-02  0 -0.7531E-02  0  0.5177E-02  0 -0.4244E-02  0 -0.2033E-02
   (  1, 12, 28)  (  4,  7, 15)  (  4,  9, 32)  (  4,  7, 26)  (  4,  8,  4)
  0 -0.2331E-02  0  0.1643E-02  0  0.1591E-02  0  0.1172E-02  0 -0.6143E-03
   (  4,  9, 37)  (  1,  8, 14)  (  1,  9,  4)  (  1, 11, 23)  (  4, 30, 21)
  0  0.5653E-03  0  0.4037E-03  0  0.3089E-03  0  0.1899E-03  0  0.1538E-03
   (  1, 15,  7)  (  4, 46, 19)  (  4,  8,  7)  (  4, 26,  7)  (  4, 56, 18)
  1  0.9036E-04  0  0.1126E-03  0 -0.6068E-04  0  0.4687E-04  0  0.4382E-04
   (  4,  7, 29)  (  1, 22, 24)  (  4,  7,  6)  (  1, 27, 23)  (  2,  9, 17)
  0 -0.3763E-04  0  0.3675E-04  0  0.2289E-04  0  0.1860E-04  0  0.1561E-04
   (  2, 22, 29)  (  2, 42,  8)  (  2, 15,  7)  (  1,  6, 12)  (  2, 20,  7)
  0  0.1039E-04  0  0.1272E-04  0  0.5524E-05  0  0.3604E-05  0 -0.3760E-05
   (  1, 15,  4)  (  1, 11, 21)  (  4, 49, 21)  (  1,  7,  9)  (  4,  9, 30)
  0 -0.2837E-05  0  0.1519E-05  0 -0.1251E-05  0  0.1246E-05  0  0.8571E-06
   (  1, 50, 13)  (  2, 46,  7)  (  4,  6, 17)  (  1,  7,  8)  (  1, 32,  8)
  0  0.6713E-06  0 -0.6721E-06  0 -0.4789E-06  0 -0.5078E-06  0  0.2380E-06
   (  1, 12, 27)  (  4, 50,  6)  (  4,  6,  6)  (  4, 50,  5)  (  1, 18, 22)
  0  0.2546E-06  0  0.1979E-06  0  0.1695E-06  0  0.9010E-07  0 -0.2349E-06
   (  1, 22, 12)  (  1,  5,  5)  (  1, 33,  7)  (  4,  9,  6)  (  3, 33, 20)
  1  0.5076E-07  0 -0.3830E-07  0 -0.6161E-07  0 -0.2243E-07  0  0.2587E-07
   (  4,  9, 21)  (  4, 35, 16)  (  4, 18, 16)  (  4, 35,  7)  (  1, 53, 16)
  0  0.1145E-07  0 -0.1372E-07  0 -0.1023E-07  0 -0.6988E-08  0  0.5290E-08
   (  1, 14, 38)  (  4, 45, 15)  (  4, 31,  3)  (  4,  8,  6)  (  1, 46,  5)
  0  0.4632E-08  0  0.3275E-08  0 -0.1950E-08  0 -0.1779E-08  0  0.1461E-08
   (  1, 25, 12)  (  1, 48, 14)  (  4, 14, 37)  (  3, 48,  9)  (  2, 43, 10)
  0 -0.1220E-08  0  0.9767E-09  0  0.7516E-09  0 -0.5333E-09  0  0.6216E-09
   (  2, 46, 16)  (  1,  6,  5)  (  2,  9,  4)  (  4,  9, 30)  (  2,  7, 15)
  0  0.3344E-09  0  0.2412E-09  0 -0.1404E-09  0 -0.1399E-09  0  0.1397E-09
   (  4, 49, 21)  (  1, 37,  5)  (  4, 47,  6)  (  4,  9,  7)  (  4, 28, 26)
  0  0.1164E-09  0  0.9688E-10  0  0.4063E-10  1 -0.2545E-10  0 -0.3189E-10
   (  1,  6, 12)  (  1, 42,  7)  (  4, 51, 24)  (  4, 13, 27)  (  4, 14, 18)
  0 -0.3247E-10  0 -0.4250E-10  0  0.2875E-10  0  0.1768E-10  0 -0.1247E-10
   (  4,  6, 18)  (  4,  8, 13)  (  1, 14, 23)  (  1, 27, 12)  (  4, 15, 26)
  0 -0.1298E-10  0 -0.1066E-10  0  0.7127E-11  0  0.5855E-11  0  0.5687E-11
   (  4, 43,  8)  (  1, 11, 29)  (  1, 40, 11)  (  2, 22, 11)  (  4, 48,  9)
  0 -0.2429E-11  1  0.1204E-10  0 -0.1348E-10  0  0.7284E-11  0  0.5322E-11
   (  2, 10, 31)  (  4,  9, 31)  (  4,  9, 25)  (  3, 14, 26)  (  4, 37, 26)
  0 -0.4270E-11  0  0.2221E-11  1  0.5300E-11  0 -0.8178E-11  0  0.6921E-11
   (  4, 16,  7)  (  4, 45,  7)  (  4, 39, 10)  (  4, 33,  8)  (  4, 37, 13)
  0  0.5157E-11  0 -0.3688E-11  0  0.2105E-11  1 -0.5350E-11  0  0.8159E-11
   (  4, 24, 16)  (  3, 15,  7)  (  4,  9,  7)  (  3, 15, 12)  (  4, 18, 18)
  0 -0.7671E-11  0 -0.4255E-11  0 -0.2623E-11  0 -0.1959E-11  0  0.3235E-11
   (  4, 16, 19)  (  4, 32, 12)  (  4, 50, 14)  (  4, 12, 18)  (  4, 12, 23)
  1 -0.5889E-11  0 -0.8818E-11  0  0.9935E-11  0 -0.3693E-11  0  0.2662E-11
   (  3,  9, 24)  (  4, 24, 15)  (  4,  9, 25)  (  4,  7, 13)  (  1, 17, 23)
  1 -0.5763E-11  0  0.6021E-11  0 -0.6439E-11  0  0.3355E-11  0 -0.2098E-11
   (  4, 15, 19)  (  3, 23, 20)  (  4, 22, 18)  (  4, 19, 11)  (  4, 37, 28)
  0 -0.3683E-11  1  0.5163E-11  0  0.6967E-11  0 -0.7154E-11  0  0.4712E-11
   (  4, 11, 28)  (  2, 10, 27)  (  4, 31, 20)  (  4, 17,  7)  (  2, 16,  8)
  0 -0.2945E-11  0 -0.1734E-11  0 -0.2571E-11  1  0.5701E-11  0  0.8660E-11
   (  4, 11, 19)  (  4, 40, 13)  (  4, 16, 17)  (  4, 18, 16)  (  4, 26,  7)
  0 -0.6481E-11  0 -0.4081E-11  0 -0.2487E-11  1 -0.6027E-11  0 -0.4985E-11
   (  3, 45,  5)  (  2, 13,  8)  (  2,  6,  9)  (  4, 17,  7)  (  3, 11, 31)
  0  0.7610E-11  0  0.2532E-11  0 -0.2197E-11  0 -0.2010E-11  1  0.3660E-11
   (  4, 35, 11)  (  4, 32,  4)  (  3, 45,  5)  (  4, 35, 11)  (  4, 26,  7)
  0  0.5734E-11  0 -0.5703E-11  0 -0.4689E-11  0  0.2916E-11  0  0.2384E-11
   (  3, 19, 22)  (  4, 15, 17)  (  4, 11, 26)  (  4, 10, 32)  (  4, 15,  8)
  1 -0.6046E-11  0 -0.6287E-11  0  0.7339E-11  0 -0.2645E-11  0 -0.2270E-11
   (  4, 17,  7)  (  3,  9, 31)  (  1, 10, 31)  (  4, 10, 26)  (  4, 48,  6)
  0  0.1613E-11  1 -0.3844E-11  0  0.6824E-11  0 -0.6054E-11  0 -0.5050E-11
   (  4, 22, 19)  (  4, 19, 17)  (  4,  9,  8)  (  4, 23,  4)  (  1, 47, 14)
  0  0.3429E-11  0  0.2201E-11  1 -0.5514E-11  0 -0.5375E-11  0  0.7295E-11
   (  4, 43, 16)  (  4, 25, 14)  (  4, 17,  7)  (  3,  9, 29)  (  4,  9, 26)
  0  0.2655E-11  0 -0.2789E-11  0  0.1819E-11  0  0.1650E-11  1 -0.3511E-11
   (  3, 24,  4)  (  4, 50,  8)  (  4, 21, 18)  (  3, 22,  6)  (  3,  7, 29)
  0 -0.7840E-11  0  0.7545E-11  0 -0.3307E-11  0 -0.2896E-11  1  0.5379E-11
   (  3,  9, 11)  (  3, 16, 17)  (  3, 46,  7)  (  4, 21, 29)  (  4,  9, 25)
  0 -0.5195E-11  0 -0.6703E-11  0  0.3573E-11  0  0.1944E-11  0 -0.2154E-11
   (  3, 14, 24)  (  3, 12,  7)  (  2, 13,  7)  (  4, 28,  5)  (  3,  7, 29)
  1 -0.5653E-11  0  0.6568E-11  0 -0.4336E-11  0  0.3805E-11  1 -0.4380E-11
   (  4, 15, 18)  (  4,  9, 10)  (  4, 19, 16)  (  4, 32, 24)  (  4, 25, 17)
  0 -0.4235E-11  0  0.6301E-11  0  0.3827E-11  0 -0.3572E-11  0  0.2799E-11
   (  4, 34, 15)  (  4, 35, 12)  (  3, 15, 17)  (  4, 17, 19)  (  4, 12, 20)
  1 -0.3950E-11  0  0.5871E-11  0  0.4717E-11  0 -0.4502E-11  0  0.2616E-11
   (  4, 16,  7)  (  4, 21, 10)  (  4,  9, 20)  (  4, 20, 28)  (  4, 31, 11)
  0  0.2504E-11  1 -0.4113E-11  0 -0.4866E-11  0  0.7613E-11  0  0.3789E-11
   (  4, 42,  7)  (  4, 44,  7)  (  4, 28,  9)  (  3, 36, 12)  (  2, 10, 12)
  0 -0.3222E-11  1  0.5251E-11  0  0.5868E-11  0 -0.6910E-11  0  0.2948E-11
   (  4, 20, 21)  (  3, 20,  7)  (  2, 52,  7)  (  4, 41, 14)  (  2,  9, 22)
  0  0.2444E-11  0 -0.2718E-11  1  0.3801E-11  0 -0.4824E-11  0  0.5461E-11
   (  4, 36, 26)  (  4, 44,  7)  (  4, 48,  7)  (  2, 22, 18)  (  2, 12, 16)
  0  0.4219E-11  0 -0.3152E-11  1  0.4866E-11  0 -0.8520E-11  0 -0.6587E-11
   (  4, 20,  5)  (  4, 45, 14)  (  4, 38,  7)  (  4, 35,  8)  (  3, 12, 16)
  0  0.4707E-11  0 -0.3250E-11  0  0.3031E-11  0  0.2056E-11  1 -0.3552E-11
   (  4, 16, 10)  (  4, 49,  6)  (  4, 50, 10)  (  4, 42, 11)  (  4,  9, 23)
  0  0.5729E-11  0  0.5008E-11  0 -0.3363E-11  0  0.3644E-11  1 -0.5159E-11
   (  2, 14, 24)  (  4, 47,  7)  (  4, 24, 20)  (  4, 16, 22)  (  4,  9, 13)
  0  0.6392E-11  0  0.4929E-11  0  0.4645E-11  0 -0.2031E-11  0 -0.1945E-11
   (  4, 28, 24)  (  4, 13, 37)  (  3, 48,  7)  (  2,  9, 37)  (  4, 44,  7)
  1  0.5034E-11  0  0.5666E-11  0  0.5003E-11  0  0.4460E-11  0 -0.2086E-11
   (  4, 47, 10)  (  4, 24, 15)  (  4,  6, 13)  (  4, 49,  7)  (  4, 18, 23)
  1  0.4990E-11  0 -0.7745E-11  0  0.4029E-11  0  0.3443E-11  0 -0.2863E-11
   (  4, 11, 14)  (  2, 22, 21)  (  4, 22, 17)  (  3,  9, 17)  (  4,  9, 20)
  0 -0.2229E-11  1  0.4419E-11  0  0.4280E-11  0 -0.6581E-11  0  0.5114E-11
   (  4, 25, 14)  (  4, 22, 12)  (  3, 43, 18)  (  4, 48,  8)  (  4, 45, 14)
  0  0.3409E-11  1 -0.5263E-11  0  0.6224E-11  0  0.2994E-11  0 -0.2335E-11
   (  2,  9, 15)  (  4, 10, 16)  (  2, 14, 16)  (  4, 12, 20)  (  3, 28, 11)
  0  0.2008E-11  0 -0.1525E-11  1  0.4041E-11  0 -0.5348E-11  0 -0.5675E-11
   (  4, 29,  9)  (  4, 10, 32)  (  2,  7, 15)  (  4,  8, 25)  (  4, 21, 13)
  0  0.4455E-11  0  0.2983E-11  1  0.4942E-11  0 -0.7508E-11  0  0.5670E-11
   (  4,  9, 28)  (  3, 50,  6)  (  4, 14, 18)  (  3, 22, 21)  (  4, 15, 10)
  0  0.3988E-11  0 -0.2998E-11  0 -0.2586E-11  1  0.4391E-11  0  0.6025E-11
   (  4, 30,  9)  (  4, 40, 16)  (  4, 25, 14)  (  4, 22, 12)  (  3, 23, 29)
  0 -0.7657E-11  0  0.3636E-11  0 -0.2530E-11  1 -0.4149E-11  0  0.5962E-11
   (  1, 15, 21)  (  4, 44, 12)  (  3, 35,  6)  (  4, 12, 19)  (  4, 32, 25)
  0 -0.4965E-11  0 -0.3532E-11  0  0.2553E-11  0  0.2699E-11  1 -0.4892E-11
   (  4, 19, 11)  (  4, 20, 24)  (  4, 31, 10)  (  2, 49, 13)  (  3, 41,  6)
  0 -0.4992E-11  0  0.7898E-11  0  0.4133E-11  0 -0.4245E-11  1  0.4999E-11
   (  4,  9, 26)  (  4, 24,  9)  (  3, 11, 28)  (  4, 15, 17)  (  4, 11, 14)
  0 -0.5864E-11  0 -0.4658E-11  0 -0.2963E-11  0  0.3183E-11  0  0.2582E-11
   (  4, 12, 16)  (  4, 37,  8)  (  4, 21, 16)  (  3, 45, 14)  (  1, 19, 29)
  1 -0.3568E-11  0 -0.5635E-11  0  0.5255E-11  0  0.4450E-11  0 -0.2909E-11
   (  3,  7, 18)  (  4, 51,  8)  (  4, 20, 11)  (  4, 50,  7)  (  2, 55,  7)
  1 -0.4391E-11  0  0.7588E-11  0 -0.5452E-11  0 -0.4459E-11  0  0.3399E-11
   (  2,  9, 16)  (  4, 13, 15)  (  3, 24, 15)  (  4, 36, 10)  (  4, 34, 12)
  0  0.2082E-11  1 -0.4166E-11  0  0.5948E-11  0  0.6666E-11  0 -0.2531E-11
   (  3, 11, 10)  (  4, 41, 10)  (  4, 42,  7)  (  4, 24,  9)  (  1, 30, 13)
  0 -0.4114E-11  1  0.5272E-11  0 -0.7048E-11  0 -0.5290E-11  0  0.3907E-11
   (  4, 15, 17)  (  4,  9,  9)  (  4, 12, 16)  (  3,  7, 28)  (  2,  9, 27)
  0  0.2004E-11  0  0.2012E-11  1 -0.2977E-11  0  0.4531E-11  0 -0.5497E-11
   (  4, 50,  7)  (  4, 11, 21)  (  4, 13, 22)  (  4,  9, 24)  (  4, 44,  9)
  0  0.4729E-11  0  0.3756E-11  0 -0.2637E-11  1  0.4752E-11  0 -0.6827E-11
   (  4, 50,  7)  (  2, 11, 27)  (  4, 11, 10)  (  4, 11, 12)  (  2, 10, 13)
  0  0.4033E-11  0  0.4266E-11  0  0.2378E-11  0 -0.2576E-11  1  0.4418E-11
   (  4, 23, 16)  (  4, 36, 15)  (  4, 50,  7)  (  4, 44,  7)  (  4, 47, 10)
  0  0.6120E-11  0 -0.5491E-11  0  0.4277E-11  0  0.3498E-11  0 -0.2095E-11
   (  4,  8, 20)  (  4, 10, 26)  (  4, 50,  7)  (  3, 10, 26)  (  3, 23, 26)
  0 -0.1972E-11  1  0.4402E-11  0  0.8584E-11  0 -0.9977E-11  0  0.4037E-11
   (  2, 38,  8)  (  4, 26,  7)  (  4, 19, 18)  (  4, 19, 16)  (  4,  9, 27)
  1  0.4628E-11  0  0.5750E-11  0 -0.6615E-11  0 -0.5667E-11  0  0.4676E-11
   (  4, 31, 13)  (  4, 23, 17)  (  4, 16, 12)  (  4, 33,  7)  (  4, 38,  8)
  0  0.2897E-11  1 -0.6772E-11  0  0.5509E-11  0  0.7350E-11  0  0.4010E-11
   (  2, 10, 20)  (  4, 13, 24)  (  4, 18, 23)  (  4, 37,  9)  (  2, 12,  9)
  0 -0.3666E-11  0 -0.2783E-11  1  0.5078E-11  0  0.7239E-11  0 -0.8172E-11
   (  3, 22, 18)  (  4, 34, 16)  (  4, 28, 11)  (  4, 23, 17)  (  4, 11,  7)
  0 -0.5257E-11  0  0.4142E-11  0  0.2623E-11  1 -0.5939E-11  0 -0.5302E-11
   (  4, 36, 11)  (  4, 37,  7)  (  4, 11, 25)  (  4,  9, 21)  (  1, 34,  6)
  0  0.6977E-11  0  0.4298E-11  0 -0.3675E-11  0 -0.3082E-11  0  0.1709E-11
   (  4, 36,  7)  (  3, 12,  8)  (  4, 22, 18)  (  4, 31, 14)  (  4, 35, 12)
  1  0.5018E-11  0 -0.5060E-11  0  0.4038E-11  0 -0.2743E-11
   (  4, 37,  7)  (  4, 42, 10)  (  4, 11, 27)  (  4, 21, 20)

 MAXIMUM RESIDUAL FOR EACH ITERATION (1 INDICATES THE FIRST INNER ITERATION):

    RESIDUAL       RESIDUAL       RESIDUAL       RESIDUAL       RESIDUAL    
   LAYER,ROW,COL  LAYER,ROW,COL  LAYER,ROW,COL  LAYER,ROW,COL  LAYER,ROW,COL
 ---------------------------------------------------------------------------
  1  0.1810E+05  0  0.1611E+05  0  0.1379E+05  0  0.1183E+05  0   9032.    
   (  3, 40, 17)  (  3, 40, 17)  (  3, 19, 26)  (  3, 40, 17)  (  3, 33, 20)
  0   7669.      0   6631.      0   5895.      0   5064.      0   4413.    
   (  3, 48, 14)  (  3, 48, 14)  (  3, 48, 14)  (  3, 48, 14)  (  3, 48, 14)
  0   3721.      0   3080.      0   2442.      0   1811.      0   1343.    
   (  3, 48, 14)  (  3, 48, 14)  (  3, 48, 14)  (  3, 48, 14)  (  3, 48, 14)
  0   960.1      0   708.9      0   522.5      0   379.6      0   263.2    
   (  3, 48, 14)  (  3, 48, 14)  (  3, 48, 14)  (  3, 48, 14)  (  3, 48, 14)
  0   185.4      0   134.1      0   82.70      0  -58.40      0   47.87    
   (  3, 48, 14)  (  3, 48, 14)  (  3, 48, 14)  (  4, 58,  2)  (  4,  3,  2)
  0   39.54      0   32.99      0   27.35      0   24.55      0   19.11    
   (  4,  2,  2)  (  4,  2,  2)  (  4,  2,  2)  (  4,  2,  2)  (  4,  2,  2)
  1   17.62      0   15.93      0   13.08      0   9.919      0   8.017    
   (  4,  2,  2)  (  4,  2,  2)  (  4,  2,  2)  (  4,  2,  2)  (  4,  2,  2)
  0   5.397      0   3.903      0   2.808      0   2.078      0   1.792    
   (  4,  2,  2)  (  4,  2,  2)  (  4,  2,  2)  (  4,  8,  2)  (  4,  8,  2)
  0   1.481      0   1.147      0  0.9079      0  0.7073      0  0.5393    
   (  4,  8,  2)  (  4,  8,  2)  (  4,  8,  2)  (  4,  8,  2)  (  4,  7,  2)
  0  0.4248      0  0.3048      0  0.2258      0  0.1550      0  0.1195    
   (  4,  7,  2)  (  4,  7,  2)  (  4,  6,  2)  (  4,  6,  2)  (  4,  2, 39)
  0  0.9043E-01  0  0.6066E-01  0  0.4341E-01  0  0.2749E-01  0  0.2040E-01
   (  4,  2, 39)  (  4,  2, 39)  (  4,  3, 39)  (  4,  3, 39)  (  4,  3, 39)
  0  0.1336E-01  0  0.8368E-02  0 -0.4959E-02  0 -0.3455E-02  0 -0.2423E-02
   (  4,  3, 39)  (  4,  3, 39)  (  4, 58,  2)  (  4, 58,  2)  (  4,  4,  2)
  1 -0.2219E-02  0 -0.1970E-02  0 -0.1565E-02  0 -0.1318E-02  0 -0.1095E-02
   (  4,  4,  2)  (  4,  4,  2)  (  4, 58, 19)  (  4, 58, 23)  (  1,  3,  2)
  0 -0.8990E-03  0  0.8595E-03  0  0.8236E-03  0  0.7469E-03  0  0.6610E-03
   (  1,  3,  2)  (  3, 58,  2)  (  3, 58,  2)  (  3, 58,  2)  (  3, 58,  2)
  0  0.5928E-03  0  0.4908E-03  0  0.3729E-03  0  0.2894E-03  0  0.2155E-03
   (  3, 58,  2)  (  3, 58,  2)  (  3, 58,  2)  (  3, 58,  2)  (  4,  8,  2)
  0  0.1653E-03  0  0.1256E-03  0  0.8966E-04  0  0.7064E-04  0  0.5419E-04
   (  4,  8,  2)  (  4,  8,  2)  (  4,  8,  2)  (  4, 18,  2)  (  4, 22,  2)
  0  0.4158E-04  0  0.3107E-04  0  0.2443E-04  0  0.2014E-04  0  0.1671E-04
   (  4, 22,  2)  (  4, 22,  2)  (  4,  3,  2)  (  4,  3,  2)  (  4,  3,  2)
  0  0.1349E-04  0  0.1016E-04  0  0.7758E-05  1  0.3190E-03  0  0.2610E-03
   (  4,  3,  2)  (  4,  3,  2)  (  4,  3, 39)  (  3, 58,  2)  (  3, 58,  2)
  0  0.2042E-03  0  0.1459E-03  0  0.1073E-03  0  0.8165E-04  0  0.6001E-04
   (  3, 58,  2)  (  3, 58,  2)  (  3, 58,  2)  (  3, 58,  2)  (  3, 58,  2)
  0  0.4483E-04  0  0.3268E-04  0  0.2315E-04  0  0.1803E-04  0  0.1267E-04
   (  3, 58,  2)  (  3, 58,  2)  (  3, 58,  2)  (  3, 58,  2)  (  3, 58,  2)
  0  0.9337E-05  1  0.1145E-03  0  0.5094E-04  0  0.2522E-04  0  0.1488E-04
   (  3, 58,  2)  (  3, 58, 39)  (  3, 58, 39)  (  3, 58, 39)  (  3, 58, 39)
  0  0.1020E-04  0  0.6614E-05  1  0.9004E-04  0  0.5874E-04  0  0.3107E-04
   (  3, 58, 39)  (  3, 58, 39)  (  4,  3,  2)  (  4,  3,  2)  (  4,  3,  2)
  0  0.1865E-04  0  0.1214E-04  0  0.8683E-05  1  0.9036E-04  0  0.6042E-04
   (  4,  3,  2)  (  4,  3,  2)  (  4,  3,  2)  (  4,  3,  2)  (  4,  3,  2)
  0  0.3587E-04  0  0.2176E-04  0  0.1551E-04  0  0.1105E-04  0  0.5428E-05
   (  4,  3,  2)  (  4,  3,  2)  (  4,  3,  2)  (  4,  3,  2)  (  4,  3,  2)
  1 -0.1288E-03  0 -0.7198E-04  0 -0.3370E-04  0 -0.1646E-04  0 -0.9982E-05
   (  3, 60, 39)  (  3, 60, 39)  (  3, 60, 39)  (  3, 60, 39)  (  3, 60, 39)
  1 -0.1008E-03  0 -0.6152E-04  0 -0.3210E-04  0 -0.2141E-04  0 -0.1541E-04
   (  4,  2, 39)  (  4,  2, 39)  (  4,  2, 39)  (  4,  2, 39)  (  4,  2, 39)
  0 -0.9697E-05  1 -0.1015E-03  0 -0.7279E-04  0 -0.3860E-04  0 -0.2018E-04
   (  4,  2, 39)  (  4,  2, 39)  (  4,  2, 39)  (  4,  2, 39)  (  4,  2, 39)
  0 -0.1396E-04  0 -0.1044E-04  0 -0.6016E-05  1 -0.9669E-04  0 -0.5491E-04
   (  4,  2, 39)  (  4,  2, 39)  (  4,  2, 39)  (  4,  2, 39)  (  4,  2, 39)
  0 -0.2246E-04  0 -0.1282E-04  0 -0.7468E-05  1 -0.1021E-03  0 -0.6531E-04
   (  4,  2, 39)  (  4,  2, 39)  (  4,  2, 39)  (  4,  2, 39)  (  4,  2, 39)
  0 -0.2859E-04  0 -0.1882E-04  0 -0.1419E-04  0 -0.7931E-05  1 -0.1016E-03
   (  4,  2, 39)  (  4,  2, 39)  (  4,  2, 39)  (  4,  2, 39)  (  4,  2, 39)
  0 -0.6857E-04  0 -0.3313E-04  0 -0.1777E-04  0 -0.1224E-04  0 -0.8852E-05
   (  4,  2, 39)  (  4,  2, 39)  (  4,  2, 39)  (  4,  2, 39)  (  4,  2, 39)
  1  0.1048E-03  0  0.5658E-04  0  0.2708E-04  0  0.1685E-04  0  0.1229E-04
   (  3, 59,  2)  (  3, 59,  2)  (  3, 59,  2)  (  3, 59,  2)  (  3, 59,  2)
  0  0.8913E-05  1  0.1040E-03  0  0.6563E-04  0  0.3091E-04  0  0.1709E-04
   (  3, 59,  2)  (  3, 59,  2)  (  3, 59,  2)  (  3, 59,  2)  (  3, 59,  2)
  0  0.1219E-04  0  0.9188E-05  1 -0.1035E-03  0 -0.6389E-04  0 -0.3474E-04
   (  3, 59,  2)  (  3, 59,  2)  (  4,  2, 39)  (  4,  2, 39)  (  4,  2, 39)
  0 -0.2267E-04  0 -0.1621E-04  0 -0.1201E-04  0 -0.5947E-05  1 -0.1005E-03
   (  4,  2, 39)  (  4,  2, 39)  (  4,  2, 39)  (  4,  2, 39)  (  4,  2, 39)
  0 -0.6614E-04  0 -0.2938E-04  0 -0.1513E-04  0 -0.9564E-05  1 -0.1012E-03
   (  4,  2, 39)  (  4,  2, 39)  (  4,  2, 39)  (  4,  2, 39)  (  4,  2, 39)
  0 -0.5652E-04  0 -0.2772E-04  0 -0.1921E-04  0 -0.1329E-04  0 -0.6444E-05
   (  4,  2, 39)  (  4,  2, 39)  (  4,  2, 39)  (  4,  2, 39)  (  4,  2, 39)
  1  0.5849E-04  0  0.3307E-04  0  0.1867E-04  0  0.9532E-05  1 -0.5911E-04
   (  3, 58,  3)  (  3, 58,  3)  (  3, 58,  3)  (  3, 58,  3)  (  3, 58,  2)
  0 -0.5031E-04  0 -0.3469E-04  0 -0.2495E-04  0 -0.1351E-04  0 -0.8381E-05
   (  3, 58,  2)  (  3, 58,  2)  (  3, 58,  2)  (  3, 58,  2)  (  3, 58,  2)
  1 -0.5852E-04  0 -0.3665E-04  0 -0.2563E-04  0 -0.1509E-04  0 -0.1064E-04
   (  3, 58,  2)  (  3, 58,  2)  (  3, 58,  2)  (  3, 58,  2)  (  3, 58,  2)
  0 -0.7130E-05  1 -0.5752E-04  0 -0.4206E-04  0 -0.2427E-04  0 -0.1583E-04
   (  3, 58,  2)  (  3, 58,  2)  (  3, 58,  2)  (  3, 58,  2)  (  3, 58,  2)
  0 -0.9387E-05  1 -0.5695E-04  0 -0.3902E-04  0 -0.2243E-04  0 -0.1715E-04
   (  3, 58,  2)  (  3, 58,  2)  (  3, 58,  2)  (  3, 58,  2)  (  3, 58,  2)
  0 -0.1189E-04  0 -0.6267E-05  1 -0.5847E-04  0 -0.4545E-04  0 -0.2870E-04
   (  3, 58,  2)  (  3, 58,  2)  (  3, 58,  2)  (  3, 58,  2)  (  3, 58,  2)
  0 -0.1406E-04  0 -0.8946E-05  1 -0.2228E-03  0 -0.1228E-03  0 -0.7098E-04
   (  3, 58,  2)  (  3, 58,  2)  (  4, 58, 39)  (  4, 58, 39)  (  4, 58, 39)
  0 -0.4593E-04  0 -0.3100E-04  0 -0.1723E-04  0 -0.8502E-05  1 -0.6490E-04
   (  4, 58, 39)  (  4, 58, 39)  (  4, 58, 39)  (  4, 58, 39)  (  4, 58, 39)
  0 -0.3671E-04  0 -0.2255E-04  0 -0.1254E-04  0 -0.7600E-05  1 -0.6448E-04
   (  4, 58, 39)  (  4, 58, 39)  (  4, 58, 39)  (  4, 58, 39)  (  4, 58, 39)
  0 -0.4502E-04  0 -0.2421E-04  0 -0.1458E-04  0 -0.1047E-04  0 -0.6383E-05
   (  4, 58, 39)  (  4, 58, 39)  (  4, 58, 39)  (  4, 58, 39)  (  4, 58, 39)
  1  0.5176E-04  0  0.3694E-04  0  0.1680E-04  0  0.1061E-04  0  0.7317E-05
   (  3,  4, 39)  (  3,  4, 39)  (  3,  4, 39)  (  3,  4, 39)  (  3,  4, 39)
  1  0.5861E-04  0  0.3794E-04  0  0.2166E-04  0  0.1378E-04  0  0.1062E-04
   (  3,  3, 38)  (  3,  3, 38)  (  3,  3, 38)  (  3,  3, 38)  (  3,  3, 38)
  0  0.5548E-05  1  0.6104E-04  0  0.4759E-04  0  0.2408E-04  0  0.1256E-04
   (  3,  3, 38)  (  3,  3, 38)  (  3,  3, 38)  (  3,  3, 38)  (  3,  3, 38)
  0  0.8304E-05  1 -0.5254E-04  0 -0.3805E-04  0 -0.2449E-04  0 -0.1833E-04
   (  3,  3, 38)  (  3, 59,  2)  (  3, 59,  2)  (  3, 59,  2)  (  3, 59,  2)
  0 -0.1252E-04  0 -0.7663E-05  1  0.5491E-04  0  0.3907E-04  0 -0.2496E-04
   (  3, 59,  2)  (  3, 59,  2)  (  4, 59,  3)  (  4, 59,  3)  (  3, 59,  3)
  0 -0.1360E-04  0 -0.8700E-05  1  0.5733E-04  0  0.4009E-04  0  0.2615E-04
   (  3, 59,  3)  (  3, 59,  3)  (  3, 59, 39)  (  3, 59, 39)  (  3, 59, 39)
  0  0.1687E-04  0  0.1256E-04  0  0.6641E-05  1 -0.5306E-04  0 -0.3559E-04
   (  3, 59, 39)  (  3, 59, 39)  (  3, 59, 39)  (  3, 59,  2)  (  3, 59,  2)
  0 -0.1922E-04  0 -0.1345E-04  0 -0.7845E-05  1 -0.5234E-04  0 -0.3879E-04
   (  3, 59,  2)  (  3, 59,  2)  (  3, 59,  2)  (  3, 59,  2)  (  3, 59,  2)
  0 -0.2507E-04  0 -0.1616E-04  0 -0.1229E-04  0 -0.7708E-05  1 -0.5339E-04
   (  3, 59,  2)  (  3, 59,  2)  (  3, 59,  2)  (  3, 59,  2)  (  3,  4, 38)
  0 -0.3984E-04  0 -0.2241E-04  0 -0.1338E-04  0 -0.9243E-05  1 -0.6482E-04
   (  3,  4, 38)  (  3,  4, 38)  (  3,  4, 38)  (  3,  4, 38)  (  4, 58, 39)
  0 -0.4407E-04  0 -0.2990E-04  0 -0.2353E-04  0 -0.1641E-04  0 -0.8182E-05
   (  4, 58, 39)  (  4, 58, 39)  (  4, 58, 39)  (  4, 58, 39)  (  4, 58, 39)
  1 -0.5275E-04  0 -0.3896E-04  0 -0.2422E-04  0 -0.1357E-04  0 -0.8201E-05
   (  3, 59,  2)  (  3, 59,  2)  (  3, 59,  2)  (  3, 59,  2)  (  3, 59,  2)
  1 -0.5219E-04  0 -0.3734E-04  0 -0.2506E-04  0 -0.1644E-04  0 -0.1114E-04
   (  3, 59,  2)  (  3, 59,  2)  (  3, 59,  2)  (  3, 59,  2)  (  3, 59,  2)
  0 -0.6564E-05  1 -0.5247E-04  0 -0.3552E-04  0 -0.2060E-04  0 -0.1464E-04
   (  3, 59,  2)  (  3, 59,  2)  (  3, 59,  2)  (  3, 59,  2)  (  3, 59,  2)
  0 -0.9902E-05  1 -0.5373E-04  0 -0.4019E-04  0 -0.2624E-04  0 -0.1717E-04
   (  3, 59,  2)  (  3,  3,  3)  (  3,  3,  3)  (  3,  3,  3)  (  3,  3,  3)
  0 -0.1320E-04  0 -0.7223E-05  1  0.5433E-04  0  0.4511E-04  0  0.2506E-04
   (  3,  3,  3)  (  3,  3,  3)  (  3,  4, 39)  (  3,  4, 39)  (  3,  4, 39)
  0  0.1545E-04  0  0.1033E-04  0  0.7404E-05  1  0.6898E-04  0  0.4963E-04
   (  3,  4, 39)  (  3,  4, 39)  (  3,  4, 39)  (  4,  3, 39)  (  4,  3, 39)
  0  0.3025E-04  0  0.1841E-04  0  0.1396E-04  0  0.8659E-05  1  0.7232E-04
   (  4,  3, 39)  (  4,  3, 39)  (  4,  3, 39)  (  4,  3, 39)  (  3,  3, 39)
  0  0.5675E-04  0  0.3108E-04  0  0.1938E-04  0 -0.1337E-04  0 -0.1002E-04
   (  3,  3, 39)  (  3,  3, 39)  (  3,  3, 39)  (  4,  3, 39)  (  4,  3, 39)
  0 -0.3350E-05  1  0.7164E-04  0  0.4576E-04  0  0.1672E-04  0  0.8960E-05
   (  4,  3, 39)  (  3,  3, 39)  (  3,  3, 39)  (  3,  3, 39)  (  3,  3, 39)
  1  0.6853E-04  0  0.5319E-04  0  0.3701E-04  0  0.2290E-04  0  0.1224E-04
   (  4,  3, 39)  (  4,  3, 39)  (  4,  3, 39)  (  4,  3, 39)  (  4,  3, 39)
  0  0.8692E-05  1  0.7250E-04  0  0.4277E-04  0  0.2543E-04  0  0.1657E-04
   (  4,  3, 39)  (  3,  3, 39)  (  3,  3, 39)  (  3,  3, 39)  (  3,  3, 39)
  0  0.1096E-04  0 -0.7711E-05  1  0.7182E-04  0  0.5177E-04  0  0.3113E-04
   (  3,  3, 39)  (  4,  3, 39)  (  3,  3, 39)  (  3,  3, 39)  (  3,  3, 39)
  0  0.1894E-04  0 -0.1191E-04  0 -0.8890E-05  1  0.7305E-04  0  0.4712E-04
   (  3,  3, 39)  (  4,  3, 39)  (  4,  3, 39)  (  3,  3, 39)  (  3,  3, 39)
  0  0.2940E-04  0  0.1988E-04  0  0.1405E-04  0  0.1013E-04  0  0.3267E-05
   (  3,  3, 39)  (  3,  3, 39)  (  3,  3, 39)  (  3,  3, 39)  (  3,  3, 39)
  1  0.5702E-04  0  0.3117E-04  0  0.1417E-04  0  0.9554E-05
   (  4,  3, 39)  (  4,  3, 39)  (  4,  3, 39)  (  4,  3, 39)




 ***Link-MT3DMS Package v7***
 OPENING LINK-MT3DMS OUTPUT FILE: mt3d_link.ftl                                                                                                                                                                                           
 ON UNIT NUMBER:    54
 FILE TYPE: UNFORMATTED
 HEADER OPTION: EXTENDED
 ***Link-MT3DMS Package v7***


 SAVING SATURATED THICKNESS AND FLOW TERMS ON UNIT   54 FOR MT3DMS
 BY THE LINK-MT3DMS PACKAGE V7 AT TIME STEP    1, STRESS PERIOD    1


           ****FAILED TO MEET SOLVER CONVERGENCE CRITERIA IN TIME STEP  1 OF STRESS PERIOD    1****
1
              HEAD IN LAYER   1 AT END OF TIME STEP   1 IN STRESS PERIOD    1
  ---------------------------------------------------------------------------

            1           2           3           4           5           6           7           8           9          10
           11          12          13          14          15          16          17          18          19          20
           21          22          23          24          25          26          27          28          29          30
           31          32          33          34          35          36          37          38          39          40
 ........................................................................................................................
   1    787.4       788.2       788.8       789.0       789.2       789.2       789.3       789.3       789.3       789.3    
        789.4       789.4       789.4       789.4       789.5       789.5       789.5       789.5       789.5       789.6    
        789.6       789.6       789.6       789.7       789.7       789.7       789.7       789.8       789.8       789.8    
        789.8       789.8       789.9       789.9       789.9       790.0       790.1       790.4       790.9       791.8    
   2    785.3       786.2       786.8       787.0       787.2       787.3       787.3       787.3       787.3       787.4    
        787.4       787.4       787.4       787.4       787.5       787.5       787.5       787.5       787.6       787.6    
        787.6       787.6       787.7       787.7       787.7       787.7       787.7       787.8       787.8       787.8    
        787.8       787.9       787.9       787.9       787.9       788.0       788.1       788.4       788.9       789.7    
   3    783.2       784.1       784.7       784.9       785.1       785.1       785.2       785.2       785.2       785.2    
        785.3       785.3       785.3       785.3       785.3       785.4       785.4       785.4       785.4       785.5    
        785.5       785.5       785.5       785.5       785.6       785.6       785.6       785.6       785.7       785.7    
        785.7       785.7       785.8       785.8       785.8       785.9       786.0       786.3       786.8       787.6    
   4    781.4       782.2       782.6       782.9       783.0       783.1       783.1       783.1       783.1       783.2    
        783.2       783.2       783.2       783.2       783.3       783.3       783.3       783.3       783.4       783.4    
        783.4       783.4       783.4       783.5       783.5       783.5       783.5       783.6       783.6       783.6    
        783.6       783.7       783.7       783.7       783.7       783.8       784.0       784.3       784.9       785.7    
   5    780.1       780.8       781.2       781.4       781.5       781.6       781.6       781.6       781.6       781.6    
        781.6       781.7       781.7       781.7       781.7       781.7       781.8       781.8       781.8       781.8    
        781.8       781.9       781.9       781.9       781.9       782.0       782.0       782.0       782.0       782.1    
        782.1       782.1       782.1       782.2       782.2       782.3       782.5       782.8       783.5       784.5    
   6    779.5       780.1       780.5       780.6       780.7       780.7       780.8       780.8       780.8       780.8    
        780.8       780.8       780.8       780.9       780.9       780.9       780.9       780.9       780.9       781.0    
        781.0       781.0       781.0       781.0       781.1       781.1       781.1       781.1       781.2       781.2    
        781.2       781.2       781.3       781.3       781.4       781.5       781.7       782.1       782.9       783.9    
   7    779.2       779.8       780.1       780.2       780.3       780.3       780.3       780.4       780.4       780.4    
        780.4       780.4       780.4       780.4       780.4       780.4       780.4       780.5       780.5       780.5    
        780.5       780.5       780.5       780.5       780.6       780.6       780.6       780.6       780.6       780.7    
        780.7       780.8       780.8       780.8       780.9       781.0       781.3       781.7       782.5       783.6    
   8    779.0       779.6       779.9       780.0       780.1       780.1       780.1       780.1       780.1       780.2    
        780.2       780.2       780.2       780.2       780.2       780.2       780.2       780.2       780.2       780.2    
        780.2       780.3       780.3       780.3       780.3       780.3       780.3       780.3       780.4       780.4    
        780.4       780.5       780.5       780.6       780.7       780.8       781.1       781.5       782.4       783.4    
   9    778.9       779.6       779.8       780.0       780.0       780.0       780.0       780.0       780.0       780.0    
        780.1       780.1       780.1       780.1       780.1       780.1       780.1       780.1       780.1       780.1    
        780.1       780.1       780.1       780.1       780.1       780.2       780.2       780.2       780.2       780.2    
        780.3       780.3       780.4       780.5       780.5       780.7       781.0       781.4       782.3       783.3    
  10    778.9       779.5       779.8       779.9       779.9       779.9       780.0       780.0       780.0       780.0    
        780.0       780.0       780.0       780.0       780.0       780.0       780.0       780.0       780.0       780.0    
        780.0       780.0       780.1       780.1       780.1       780.1       780.0       780.0       780.0       780.1    
        780.2       780.3       780.3       780.4       780.5       780.6       780.9       781.4       782.2       783.3    
  11    778.8       779.5       779.7       779.8       779.9       779.9       779.9       779.9       779.9       779.9    
        779.9       779.9       779.9       779.9       779.9       779.9       779.9       779.9       779.9       780.0    
        780.0       780.0       780.0       780.0       780.0       780.0       779.9       779.9       779.8       780.0    
        780.1       780.2       780.2       780.3       780.4       780.5       780.8       781.3       782.2       783.2    
  12    778.8       779.4       779.7       779.8       779.8       779.8       779.8       779.8       779.8       779.8    
        779.8       779.8       779.8       779.8       779.9       779.9       779.9       779.9       779.9       779.9    
        779.9       779.9       779.9       779.9       779.9       779.9       779.9       779.9       779.9       779.9    
        780.0       780.1       780.2       780.2       780.3       780.5       780.8       781.3       782.1       783.2    
  13    778.7       779.3       779.6       779.7       779.7       779.7       779.7       779.8       779.8       779.8    
        779.8       779.8       779.8       779.8       779.8       779.8       779.8       779.8       779.8       779.8    
        779.8       779.8       779.8       779.8       779.8       779.8       779.8       779.8       779.8       779.9    
        780.0       780.0       780.1       780.2       780.2       780.4       780.7       781.2       782.1       783.1    
  14    778.7       779.3       779.5       779.6       779.7       779.7       779.7       779.7       779.7       779.7    
        779.7       779.7       779.7       779.7       779.7       779.7       779.7       779.7       779.7       779.7    
        779.7       779.7       779.7       779.7       779.7       779.7       779.7       779.8       779.8       779.9    
        779.9       780.0       780.0       780.1       780.2       780.3       780.6       781.2       782.0       783.1    
  15    778.6       779.2       779.5       779.6       779.6       779.6       779.6       779.6       779.6       779.6    
        779.6       779.6       779.6       779.6       779.6       779.6       779.6       779.6       779.6       779.6    
        779.6       779.6       779.6       779.6       779.6       779.7       779.7       779.7       779.7       779.8    
        779.9       779.9       780.0       780.0       780.1       780.3       780.6       781.1       782.0       783.0    
  16    778.6       779.2       779.4       779.5       779.5       779.5       779.5       779.5       779.5       779.5    
        779.5       779.5       779.5       779.5       779.5       779.5       779.5       779.5       779.5       779.5    
        779.5       779.5       779.5       779.5       779.5       779.6       779.6       779.6       779.7       779.7    
        779.8       779.8       779.9       780.0       780.1       780.2       780.5       781.0       781.9       783.0    
  17    778.5       779.1       779.4       779.4       779.5       779.5       779.5       779.5       779.5       779.5    
        779.5       779.5       779.5       779.5       779.5       779.5       779.5       779.5       779.5       779.5    
        779.5       779.5       779.5       779.4       779.4       779.5       779.5       779.5       779.6       779.7    
        779.7       779.8       779.8       779.9       780.0       780.2       780.5       781.0       781.9       782.9    
  18    778.5       779.1       779.3       779.4       779.4       779.4       779.4       779.4       779.4       779.4    
        779.4       779.4       779.4       779.4       779.4       779.4       779.4       779.4       779.4       779.4    
        779.4       779.4       779.4       779.3       779.3       779.3       779.4       779.5       779.5       779.6    
        779.7       779.7       779.8       779.8       779.9       780.1       780.4       780.9       781.8       782.8    
  19    778.4       779.0       779.2       779.3       779.3       779.3       779.3       779.3       779.3       779.3    
        779.3       779.3       779.3       779.3       779.3       779.3       779.3       779.3       779.3       779.3    
        779.3       779.3       779.3       779.3       779.2       779.1       779.3       779.4       779.5       779.5    
        779.6       779.7       779.7       779.8       779.9       780.0       780.3       780.9       781.7       782.8    
  20    778.4       779.0       779.2       779.2       779.3       779.3       779.3       779.3       779.3       779.3    
        779.3       779.3       779.2       779.2       779.2       779.2       779.2       779.2       779.2       779.2    
        779.2       779.2       779.2       779.2       779.2       779.2       779.2       779.3       779.4       779.5    
        779.5       779.6       779.7       779.7       779.8       780.0       780.3       780.8       781.7       782.7    
  21    778.3       778.9       779.1       779.2       779.2       779.2       779.2       779.2       779.2       779.2    
        779.2       779.2       779.2       779.2       779.2       779.2       779.2       779.2       779.1       779.1    
        779.1       779.1       779.1       779.1       779.1       779.2       779.2       779.3       779.4       779.4    
        779.5       779.5       779.6       779.7       779.8       779.9       780.2       780.8       781.6       782.7    
  22    778.3       778.9       779.1       779.1       779.1       779.1       779.1       779.1       779.1       779.1    
        779.1       779.1       779.1       779.1       779.1       779.1       779.1       779.1       779.1       779.1    
        779.1       779.1       779.1       779.1       779.1       779.1       779.2       779.2       779.3       779.4    
        779.4       779.5       779.6       779.6       779.7       779.9       780.2       780.7       781.6       782.6    
  23    778.2       778.8       779.0       779.1       779.1       779.1       779.0       779.0       779.0       779.0    
        779.0       779.0       779.0       779.0       779.0       779.0       779.0       779.0       779.0       779.0    
        779.0       779.0       779.0       779.0       779.0       779.1       779.1       779.2       779.3       779.3    
        779.4       779.4       779.5       779.6       779.6       779.8       780.1       780.6       781.5       782.6    
  24    778.2       778.7       779.0       779.0       779.0       779.0       779.0       779.0       779.0       779.0    
        779.0       779.0       779.0       778.9       778.9       778.9       778.9       778.9       778.9       778.9    
        778.9       778.9       778.9       778.9       779.0       779.0       779.1       779.1       779.2       779.3    
        779.3       779.4       779.4       779.5       779.6       779.8       780.1       780.6       781.5       782.5    
  25    778.1       778.7       778.9       778.9       778.9       778.9       778.9       778.9       778.9       778.9    
        778.9       778.9       778.9       778.9       778.9       778.9       778.9       778.8       778.8       778.8    
        778.8       778.8       778.7       778.8       778.9       779.0       779.0       779.1       779.2       779.2    
        779.3       779.3       779.4       779.4       779.5       779.7       780.0       780.5       781.4       782.5    
  26    778.1       778.6       778.8       778.9       778.9       778.9       778.8       778.8       778.8       778.8    
        778.8       778.8       778.8       778.8       778.8       778.8       778.8       778.8       778.8       778.7    
        778.7       778.7       778.5       778.7       778.8       778.9       779.0       779.0       779.1       779.2    
        779.2       779.3       779.3       779.4       779.5       779.6       779.9       780.5       781.4       782.4    
  27    778.0       778.6       778.8       778.8       778.8       778.8       778.8       778.8       778.8       778.8    
        778.8       778.7       778.7       778.7       778.7       778.7       778.7       778.7       778.7       778.7    
        778.7       778.6       778.6       778.7       778.8       778.9       778.9       779.0       779.1       779.1    
        779.2       779.2       779.3       779.3       779.4       779.6       779.9       780.4       781.3       782.4    
  28    778.0       778.5       778.7       778.7       778.7       778.7       778.7       778.7       778.7       778.7    
        778.7       778.7       778.7       778.7       778.7       778.6       778.6       778.6       778.6       778.6    
        778.6       778.6       778.6       778.7       778.7       778.8       778.9       778.9       779.0       779.1    
        779.1       779.2       779.2       779.3       779.4       779.5       779.8       780.4       781.3       782.3    
  29    777.9       778.5       778.7       778.7       778.7       778.7       778.6       778.6       778.6       778.6    
        778.6       778.6       778.6       778.6       778.6       778.6       778.6       778.5       778.5       778.5    
        778.6       778.6       778.6       778.7       778.7       778.8       778.8       778.9       779.0       779.0    
        779.1       779.1       779.2       779.2       779.3       779.5       779.8       780.3       781.2       782.3    
  30    777.9       778.4       778.6       778.6       778.6       778.6       778.6       778.6       778.6       778.6    
        778.5       778.5       778.5       778.5       778.5       778.5       778.5       778.5       778.5       778.5    
        778.5       778.5       778.6       778.6       778.7       778.7       778.8       778.8       778.9       779.0    
        779.0       779.1       779.1       779.2       779.3       779.4       779.7       780.3       781.2       782.2    
  31    777.8       778.4       778.6       778.6       778.5       778.5       778.5       778.5       778.5       778.5    
        778.5       778.5       778.5       778.4       778.4       778.4       778.4       778.4       778.4       778.4    
        778.4       778.5       778.5       778.6       778.6       778.7       778.7       778.8       778.9       778.9    
        779.0       779.0       779.1       779.1       779.2       779.4       779.7       780.2       781.1       782.2    
  32    777.8       778.3       778.5       778.5       778.5       778.5       778.4       778.4       778.4       778.4    
        778.4       778.4       778.4       778.4       778.4       778.3       778.3       778.3       778.3       778.3    
        778.3       778.4       778.5       778.5       778.6       778.6       778.7       778.8       778.8       778.9    
        778.9       779.0       779.0       779.1       779.2       779.3       779.6       780.2       781.1       782.1    
  33    777.7       778.3       778.4       778.4       778.4       778.4       778.4       778.4       778.4       778.4    
        778.3       778.3       778.3       778.3       778.3       778.3       778.3       778.2       778.2       778.1    
        778.2       778.3       778.4       778.5       778.5       778.6       778.7       778.7       778.8       778.8    
        778.9       778.9       779.0       779.1       779.1       779.3       779.6       780.1       781.0       782.1    
  34    777.6       778.2       778.4       778.4       778.4       778.3       778.3       778.3       778.3       778.3    
        778.3       778.3       778.3       778.2       778.2       778.2       778.2       778.2       778.2       778.1    
        778.2       778.3       778.4       778.4       778.5       778.6       778.6       778.7       778.7       778.8    
        778.8       778.9       779.0       779.0       779.1       779.2       779.5       780.1       781.0       782.0    
  35    777.6       778.2       778.3       778.3       778.3       778.3       778.3       778.2       778.2       778.2    
        778.2       778.2       778.2       778.2       778.2       778.1       778.1       778.1       778.1       778.2    
        778.2       778.3       778.3       778.4       778.5       778.5       778.6       778.6       778.7       778.7    
        778.8       778.9       778.9       779.0       779.0       779.2       779.5       780.0       780.9       782.0    
  36    777.5       778.1       778.3       778.3       778.2       778.2       778.2       778.2       778.2       778.2    
        778.1       778.1       778.1       778.1       778.1       778.1       778.1       778.1       778.1       778.1    
        778.2       778.2       778.3       778.4       778.4       778.5       778.5       778.6       778.6       778.7    
        778.8       778.8       778.9       778.9       779.0       779.2       779.4       780.0       780.9       781.9    
  37    777.5       778.1       778.2       778.2       778.2       778.1       778.1       778.1       778.1       778.1    
        778.1       778.1       778.0       778.0       778.0       778.0       778.0       778.0       778.1       778.1    
        778.1       778.2       778.3       778.3       778.4       778.4       778.5       778.5       778.6       778.7    
        778.7       778.8       778.8       778.9       779.0       779.1       779.4       779.9       780.8       781.9    
  38    777.4       778.0       778.2       778.2       778.1       778.1       778.1       778.0       778.0       778.0    
        778.0       778.0       778.0       778.0       777.9       777.9       777.9       778.0       778.0       778.0    
        778.1       778.2       778.2       778.3       778.3       778.4       778.4       778.5       778.6       778.6    
        778.7       778.7       778.8       778.8       778.9       779.1       779.4       779.9       780.8       781.8    
  39    777.4       777.9       778.1       778.1       778.1       778.0       778.0       778.0       778.0       778.0    
        777.9       777.9       777.9       777.9       777.9       777.8       777.8       777.9       777.9       778.0    
        778.1       778.1       778.2       778.2       778.3       778.4       778.4       778.5       778.5       778.6    
        778.6       778.7       778.7       778.8       778.9       779.0       779.3       779.8       780.7       781.8    
  40    777.3       777.9       778.1       778.1       778.0       778.0       777.9       777.9       777.9       777.9    
        777.9       777.9       777.8       777.8       777.8       777.7       777.6       777.8       777.9       778.0    
        778.0       778.1       778.1       778.2       778.3       778.3       778.4       778.4       778.5       778.5    
        778.6       778.6       778.7       778.7       778.8       779.0       779.3       779.8       780.6       781.7    
  41    777.3       777.8       778.0       778.0       777.9       777.9       777.9       777.9       777.8       777.8    
        777.8       777.8       777.8       777.8       777.7       777.7       777.7       777.8       777.8       777.9    
        778.0       778.0       778.1       778.2       778.2       778.3       778.3       778.4       778.4       778.5    
        778.5       778.6       778.7       778.7       778.8       778.9       779.2       779.7       780.6       781.7    
  42    777.2       777.8       778.0       777.9       777.9       777.8       777.8       777.8       777.8       777.8    
        777.7       777.7       777.7       777.7       777.7       777.7       777.7       777.8       777.8       777.9    
        777.9       778.0       778.1       778.1       778.2       778.2       778.3       778.3       778.4       778.5    
        778.5       778.6       778.6       778.7       778.7       778.9       779.2       779.7       780.5       781.6    
  43    777.2       777.7       777.9       777.9       777.8       777.8       777.7       777.7       777.7       777.7    
        777.7       777.7       777.7       777.7       777.7       777.7       777.7       777.7       777.8       777.9    
        777.9       778.0       778.0       778.1       778.1       778.2       778.3       778.3       778.4       778.4    
        778.5       778.5       778.6       778.6       778.7       778.8       779.1       779.6       780.5       781.5    
  44    777.1       777.7       777.9       777.8       777.8       777.7       777.7       777.7       777.6       777.6    
        777.6       777.6       777.6       777.6       777.6       777.6       777.7       777.7       777.8       777.8    
        777.9       777.9       778.0       778.0       778.1       778.2       778.2       778.3       778.3       778.4    
        778.4       778.5       778.5       778.6       778.7       778.8       779.1       779.6       780.4       781.5    
  45    777.1       777.6       777.8       777.8       777.7       777.7       777.6       777.6       777.6       777.6    
        777.5       777.5       777.5       777.5       777.6       777.6       777.6       777.7       777.7       777.8    
        777.8       777.9       778.0       778.0       778.1       778.1       778.2       778.2       778.3       778.3    
        778.4       778.4       778.5       778.5       778.6       778.8       779.0       779.5       780.4       781.4    
  46    777.0       777.6       777.8       777.8       777.7       777.6       777.5       777.5       777.5       777.5    
        777.5       777.5       777.5       777.5       777.5       777.5       777.6       777.6       777.7       777.7    
        777.8       777.9       777.9       778.0       778.0       778.1       778.1       778.2       778.3       778.3    
        778.4       778.4       778.5       778.5       778.6       778.7       779.0       779.5       780.3       781.4    
  47    777.0       777.5       777.7       777.7       777.6       777.5       777.5       777.4       777.4       777.4    
        777.4       777.4       777.4       777.3       777.4       777.5       777.5       777.6       777.6       777.7    
        777.8       777.8       777.9       777.9       778.0       778.1       778.1       778.2       778.2       778.3    
        778.3       778.4       778.4       778.5       778.5       778.7       778.9       779.4       780.3       781.3    
  48    776.9       777.5       777.7       777.7       777.6       777.5       777.4       777.4       777.2       777.3    
        777.3       777.3       777.3       777.2       777.3       777.4       777.5       777.5       777.6       777.7    
        777.7       777.8       777.9       777.9       778.0       778.0       778.1       778.1       778.2       778.2    
        778.3       778.3       778.4       778.4       778.5       778.6       778.9       779.4       780.2       781.3    
  49    776.9       777.4       777.6       777.6       777.5       777.5       777.4       777.4       777.3       777.3    
        777.3       777.3       777.3       777.3       777.3       777.4       777.4       777.5       777.6       777.6    
        777.7       777.8       777.8       777.9       777.9       778.0       778.0       778.1       778.1       778.2    
        778.2       778.3       778.3       778.4       778.5       778.6       778.9       779.3       780.2       781.2    
  50    776.8       777.4       777.6       777.6       777.5       777.4       777.4       777.4       777.3       777.3    
        777.3       777.3       777.3       777.3       777.3       777.3       777.4       777.5       777.5       777.6    
        777.7       777.7       777.8       777.8       777.9       778.0       778.0       778.1       778.1       778.2    
        778.2       778.3       778.3       778.4       778.4       778.6       778.8       779.3       780.1       781.2    
  51    776.8       777.3       777.5       777.5       777.5       777.4       777.4       777.4       777.3       777.3    
        777.3       777.3       777.3       777.3       777.3       777.3       777.3       777.4       777.5       777.6    
        777.6       777.7       777.8       777.8       777.9       777.9       778.0       778.0       778.1       778.1    
        778.2       778.2       778.3       778.3       778.4       778.5       778.8       779.3       780.1       781.1    
  52    776.7       777.3       777.5       777.5       777.4       777.4       777.4       777.4       777.3       777.3    
        777.3       777.3       777.3       777.3       777.3       777.3       777.2       777.3       777.5       777.5    
        777.6       777.7       777.7       777.8       777.8       777.9       777.9       778.0       778.0       778.1    
        778.1       778.2       778.2       778.3       778.4       778.5       778.7       779.2       780.0       781.1    
  53    776.7       777.2       777.4       777.5       777.4       777.4       777.4       777.3       777.3       777.3    
        777.3       777.3       777.3       777.3       777.3       777.3       777.3       777.4       777.5       777.5    
        777.6       777.7       777.7       777.8       777.8       777.9       777.9       778.0       778.0       778.1    
        778.1       778.2       778.2       778.2       778.3       778.4       778.7       779.2       780.0       781.0    
  54    776.6       777.2       777.4       777.4       777.4       777.3       777.3       777.3       777.3       777.3    
        777.3       777.3       777.3       777.3       777.3       777.3       777.4       777.4       777.5       777.5    
        777.6       777.6       777.7       777.7       777.8       777.8       777.9       777.9       778.0       778.0    
        778.1       778.1       778.2       778.2       778.3       778.4       778.6       779.1       779.9       781.0    
  55    776.4       777.0       777.2       777.3       777.3       777.3       777.3       777.3       777.3       777.3    
        777.3       777.3       777.3       777.3       777.3       777.4       777.4       777.4       777.5       777.5    
        777.5       777.6       777.6       777.7       777.7       777.8       777.8       777.8       777.9       777.9    
        778.0       778.0       778.1       778.1       778.2       778.3       778.5       779.0       779.8       780.8    
  56    776.1       776.7       777.0       777.1       777.1       777.1       777.2       777.2       777.2       777.2    
        777.2       777.2       777.2       777.3       777.3       777.3       777.3       777.4       777.4       777.4    
        777.4       777.5       777.5       777.5       777.6       777.6       777.6       777.7       777.7       777.7    
        777.8       777.8       777.9       777.9       777.9       778.1       778.3       778.7       779.5       780.5    
  57    775.5       776.1       776.5       776.6       776.7       776.8       776.8       776.8       776.8       776.9    
        776.9       776.9       776.9       776.9       777.0       777.0       777.0       777.0       777.1       777.1    
        777.1       777.1       777.2       777.2       777.2       777.2       777.3       777.3       777.3       777.4    
        777.4       777.4       777.4       777.5       777.5       777.6       777.8       778.2       778.9       779.9    
  58    774.2       775.0       775.5       775.7       775.8       775.9       775.9       775.9       775.9       776.0    
        776.0       776.0       776.0       776.1       776.1       776.1       776.1       776.1       776.2       776.2    
        776.2       776.2       776.3       776.3       776.3       776.3       776.4       776.4       776.4       776.4    
        776.5       776.5       776.5       776.5       776.6       776.6       776.8       777.1       777.7       778.6    
  59    772.4       773.2       773.8       774.0       774.2       774.2       774.3       774.3       774.3       774.3    
        774.4       774.4       774.4       774.4       774.4       774.5       774.5       774.5       774.5       774.6    
        774.6       774.6       774.6       774.7       774.7       774.7       774.7       774.7       774.8       774.8    
        774.8       774.8       774.9       774.9       774.9       775.0       775.1       775.4       776.0       776.7    
  60    770.3       771.2       771.7       772.0       772.1       772.2       772.3       772.3       772.3       772.3    
        772.3       772.4       772.4       772.4       772.4       772.5       772.5       772.5       772.5       772.5    
        772.6       772.6       772.6       772.6       772.7       772.7       772.7       772.7       772.8       772.8    
        772.8       772.8       772.8       772.9       772.9       773.0       773.1       773.4       773.9       774.7    
  61    768.2       769.0       769.6       769.8       770.0       770.1       770.1       770.1       770.1       770.2    
        770.2       770.2       770.2       770.2       770.3       770.3       770.3       770.3       770.4       770.4    
        770.4       770.4       770.5       770.5       770.5       770.5       770.5       770.6       770.6       770.6    
        770.6       770.7       770.7       770.7       770.7       770.8       770.9       771.2       771.8       772.6    
1
              HEAD IN LAYER   2 AT END OF TIME STEP   1 IN STRESS PERIOD    1
  ---------------------------------------------------------------------------

            1           2           3           4           5           6           7           8           9          10
           11          12          13          14          15          16          17          18          19          20
           21          22          23          24          25          26          27          28          29          30
           31          32          33          34          35          36          37          38          39          40
 ........................................................................................................................
   1    787.4       788.2       788.8       789.0       789.2       789.2       789.3       789.3       789.3       789.3    
        789.4       789.4       789.4       789.4       789.5       789.5       789.5       789.5       789.5       789.6    
        789.6       789.6       789.6       789.7       789.7       789.7       789.7       789.8       789.8       789.8    
        789.8       789.8       789.9       789.9       789.9       790.0       790.1       790.4       790.9       791.8    
   2    785.3       786.2       786.8       787.0       787.2       787.3       787.3       787.3       787.3       787.4    
        787.4       787.4       787.4       787.4       787.5       787.5       787.5       787.5       787.6       787.6    
        787.6       787.6       787.7       787.7       787.7       787.7       787.7       787.8       787.8       787.8    
        787.8       787.9       787.9       787.9       787.9       788.0       788.1       788.4       788.9       789.7    
   3    783.2       784.1       784.7       784.9       785.1       785.1       785.2       785.2       785.2       785.2    
        785.3       785.3       785.3       785.3       785.3       785.4       785.4       785.4       785.4       785.5    
        785.5       785.5       785.5       785.5       785.6       785.6       785.6       785.6       785.7       785.7    
        785.7       785.7       785.8       785.8       785.8       785.9       786.0       786.3       786.8       787.6    
   4    781.4       782.2       782.6       782.9       783.0       783.1       783.1       783.1       783.1       783.2    
        783.2       783.2       783.2       783.2       783.3       783.3       783.3       783.3       783.4       783.4    
        783.4       783.4       783.4       783.5       783.5       783.5       783.5       783.6       783.6       783.6    
        783.6       783.7       783.7       783.7       783.7       783.8       784.0       784.3       784.9       785.7    
   5    780.1       780.8       781.2       781.4       781.5       781.6       781.6       781.6       781.6       781.6    
        781.6       781.7       781.7       781.7       781.7       781.7       781.8       781.8       781.8       781.8    
        781.8       781.9       781.9       781.9       781.9       782.0       782.0       782.0       782.0       782.1    
        782.1       782.1       782.1       782.2       782.2       782.3       782.5       782.8       783.5       784.5    
   6    779.5       780.1       780.5       780.6       780.7       780.7       780.8       780.8       780.8       780.8    
        780.8       780.8       780.8       780.9       780.9       780.9       780.9       780.9       780.9       781.0    
        781.0       781.0       781.0       781.0       781.1       781.1       781.1       781.1       781.2       781.2    
        781.2       781.2       781.3       781.3       781.4       781.5       781.7       782.1       782.9       783.9    
   7    779.2       779.8       780.1       780.2       780.3       780.3       780.3       780.4       780.4       780.4    
        780.4       780.4       780.4       780.4       780.4       780.4       780.4       780.5       780.5       780.5    
        780.5       780.5       780.5       780.5       780.6       780.6       780.6       780.6       780.6       780.7    
        780.7       780.8       780.8       780.8       780.9       781.0       781.3       781.7       782.5       783.6    
   8    779.0       779.6       779.9       780.0       780.1       780.1       780.1       780.1       780.1       780.2    
        780.2       780.2       780.2       780.2       780.2       780.2       780.2       780.2       780.2       780.2    
        780.2       780.3       780.3       780.3       780.3       780.3       780.3       780.3       780.4       780.4    
        780.4       780.5       780.5       780.6       780.7       780.8       781.1       781.5       782.4       783.4    
   9    778.9       779.6       779.8       780.0       780.0       780.0       780.0       780.0       780.0       780.0    
        780.1       780.1       780.1       780.1       780.1       780.1       780.1       780.1       780.1       780.1    
        780.1       780.1       780.1       780.1       780.1       780.2       780.2       780.2       780.2       780.2    
        780.3       780.3       780.4       780.5       780.5       780.7       781.0       781.4       782.3       783.3    
  10    778.9       779.5       779.8       779.9       779.9       779.9       780.0       780.0       780.0       780.0    
        780.0       780.0       780.0       780.0       780.0       780.0       780.0       780.0       780.0       780.0    
        780.0       780.0       780.1       780.1       780.1       780.1       780.0       780.0       780.0       780.1    
        780.2       780.3       780.3       780.4       780.5       780.6       780.9       781.4       782.2       783.3    
  11    778.8       779.5       779.7       779.8       779.9       779.9       779.9       779.9       779.9       779.9    
        779.9       779.9       779.9       779.9       779.9       779.9       779.9       779.9       779.9       780.0    
        780.0       780.0       780.0       780.0       780.0       780.0       779.9       779.9       779.8       780.0    
        780.1       780.2       780.2       780.3       780.4       780.5       780.8       781.3       782.2       783.2    
  12    778.8       779.4       779.7       779.8       779.8       779.8       779.8       779.8       779.8       779.8    
        779.8       779.8       779.8       779.8       779.9       779.9       779.9       779.9       779.9       779.9    
        779.9       779.9       779.9       779.9       779.9       779.9       779.9       779.9       779.9       779.9    
        780.0       780.1       780.2       780.2       780.3       780.5       780.8       781.3       782.1       783.2    
  13    778.7       779.3       779.6       779.7       779.7       779.7       779.7       779.8       779.8       779.8    
        779.8       779.8       779.8       779.8       779.8       779.8       779.8       779.8       779.8       779.8    
        779.8       779.8       779.8       779.8       779.8       779.8       779.8       779.8       779.8       779.9    
        780.0       780.0       780.1       780.2       780.2       780.4       780.7       781.2       782.1       783.1    
  14    778.7       779.3       779.5       779.6       779.7       779.7       779.7       779.7       779.7       779.7    
        779.7       779.7       779.7       779.7       779.7       779.7       779.7       779.7       779.7       779.7    
        779.7       779.7       779.7       779.7       779.7       779.7       779.7       779.8       779.8       779.9    
        779.9       780.0       780.0       780.1       780.2       780.3       780.6       781.2       782.0       783.1    
  15    778.6       779.2       779.5       779.6       779.6       779.6       779.6       779.6       779.6       779.6    
        779.6       779.6       779.6       779.6       779.6       779.6       779.6       779.6       779.6       779.6    
        779.6       779.6       779.6       779.6       779.6       779.7       779.7       779.7       779.7       779.8    
        779.9       779.9       780.0       780.0       780.1       780.3       780.6       781.1       782.0       783.0    
  16    778.6       779.2       779.4       779.5       779.5       779.5       779.5       779.5       779.5       779.5    
        779.5       779.5       779.5       779.5       779.5       779.5       779.5       779.5       779.5       779.5    
        779.5       779.5       779.5       779.5       779.5       779.6       779.6       779.6       779.7       779.7    
        779.8       779.8       779.9       780.0       780.1       780.2       780.5       781.0       781.9       783.0    
  17    778.5       779.1       779.4       779.4       779.5       779.5       779.5       779.5       779.5       779.5    
        779.5       779.5       779.5       779.5       779.5       779.5       779.5       779.5       779.5       779.5    
        779.5       779.5       779.5       779.4       779.4       779.5       779.5       779.5       779.6       779.7    
        779.7       779.8       779.8       779.9       780.0       780.2       780.5       781.0       781.9       782.9    
  18    778.5       779.1       779.3       779.4       779.4       779.4       779.4       779.4       779.4       779.4    
        779.4       779.4       779.4       779.4       779.4       779.4       779.4       779.4       779.4       779.4    
        779.4       779.4       779.4       779.3       779.3       779.3       779.4       779.5       779.5       779.6    
        779.7       779.7       779.8       779.8       779.9       780.1       780.4       780.9       781.8       782.8    
  19    778.4       779.0       779.2       779.3       779.3       779.3       779.3       779.3       779.3       779.3    
        779.3       779.3       779.3       779.3       779.3       779.3       779.3       779.3       779.3       779.3    
        779.3       779.3       779.3       779.3       779.2       779.1       779.3       779.4       779.5       779.5    
        779.6       779.7       779.7       779.8       779.9       780.0       780.3       780.9       781.7       782.8    
  20    778.4       779.0       779.2       779.2       779.3       779.3       779.3       779.3       779.3       779.3    
        779.3       779.3       779.2       779.2       779.2       779.2       779.2       779.2       779.2       779.2    
        779.2       779.2       779.2       779.2       779.2       779.2       779.2       779.3       779.4       779.5    
        779.5       779.6       779.7       779.7       779.8       780.0       780.3       780.8       781.7       782.7    
  21    778.3       778.9       779.1       779.2       779.2       779.2       779.2       779.2       779.2       779.2    
        779.2       779.2       779.2       779.2       779.2       779.2       779.2       779.2       779.1       779.1    
        779.1       779.1       779.1       779.1       779.1       779.2       779.2       779.3       779.4       779.4    
        779.5       779.5       779.6       779.7       779.8       779.9       780.2       780.8       781.6       782.7    
  22    778.3       778.9       779.1       779.1       779.1       779.1       779.1       779.1       779.1       779.1    
        779.1       779.1       779.1       779.1       779.1       779.1       779.1       779.1       779.1       779.1    
        779.1       779.1       779.1       779.1       779.1       779.1       779.2       779.2       779.3       779.4    
        779.4       779.5       779.6       779.6       779.7       779.9       780.2       780.7       781.6       782.6    
  23    778.2       778.8       779.0       779.1       779.1       779.1       779.0       779.0       779.0       779.0    
        779.0       779.0       779.0       779.0       779.0       779.0       779.0       779.0       779.0       779.0    
        779.0       779.0       779.0       779.0       779.0       779.1       779.1       779.2       779.3       779.3    
        779.4       779.4       779.5       779.6       779.6       779.8       780.1       780.6       781.5       782.6    
  24    778.2       778.7       779.0       779.0       779.0       779.0       779.0       779.0       779.0       779.0    
        779.0       779.0       779.0       778.9       778.9       778.9       778.9       778.9       778.9       778.9    
        778.9       778.9       778.9       778.9       779.0       779.0       779.1       779.1       779.2       779.3    
        779.3       779.4       779.4       779.5       779.6       779.8       780.1       780.6       781.5       782.5    
  25    778.1       778.7       778.9       778.9       778.9       778.9       778.9       778.9       778.9       778.9    
        778.9       778.9       778.9       778.9       778.9       778.9       778.9       778.8       778.8       778.8    
        778.8       778.8       778.7       778.8       778.9       779.0       779.0       779.1       779.2       779.2    
        779.3       779.3       779.4       779.4       779.5       779.7       780.0       780.5       781.4       782.5    
  26    778.1       778.6       778.8       778.9       778.9       778.9       778.8       778.8       778.8       778.8    
        778.8       778.8       778.8       778.8       778.8       778.8       778.8       778.8       778.8       778.7    
        778.7       778.7       778.5       778.7       778.8       778.9       779.0       779.0       779.1       779.2    
        779.2       779.3       779.3       779.4       779.5       779.6       779.9       780.5       781.4       782.4    
  27    778.0       778.6       778.8       778.8       778.8       778.8       778.8       778.8       778.8       778.8    
        778.8       778.7       778.7       778.7       778.7       778.7       778.7       778.7       778.7       778.7    
        778.7       778.6       778.6       778.7       778.8       778.9       778.9       779.0       779.1       779.1    
        779.2       779.2       779.3       779.3       779.4       779.6       779.9       780.4       781.3       782.4    
  28    778.0       778.5       778.7       778.7       778.7       778.7       778.7       778.7       778.7       778.7    
        778.7       778.7       778.7       778.7       778.7       778.6       778.6       778.6       778.6       778.6    
        778.6       778.6       778.6       778.7       778.7       778.8       778.9       778.9       779.0       779.1    
        779.1       779.2       779.2       779.3       779.4       779.5       779.8       780.4       781.3       782.3    
  29    777.9       778.5       778.7       778.7       778.7       778.7       778.6       778.6       778.6       778.6    
        778.6       778.6       778.6       778.6       778.6       778.6       778.6       778.5       778.5       778.5    
        778.6       778.6       778.6       778.7       778.7       778.8       778.8       778.9       779.0       779.0    
        779.1       779.1       779.2       779.2       779.3       779.5       779.8       780.3       781.2       782.3    
  30    777.9       778.4       778.6       778.6       778.6       778.6       778.6       778.6       778.6       778.6    
        778.5       778.5       778.5       778.5       778.5       778.5       778.5       778.5       778.5       778.5    
        778.5       778.5       778.6       778.6       778.7       778.7       778.8       778.8       778.9       779.0    
        779.0       779.1       779.1       779.2       779.3       779.4       779.7       780.3       781.2       782.2    
  31    777.8       778.4       778.6       778.6       778.5       778.5       778.5       778.5       778.5       778.5    
        778.5       778.5       778.5       778.4       778.4       778.4       778.4       778.4       778.4       778.4    
        778.4       778.5       778.5       778.6       778.6       778.7       778.7       778.8       778.9       778.9    
        779.0       779.0       779.1       779.1       779.2       779.4       779.7       780.2       781.1       782.2    
  32    777.8       778.3       778.5       778.5       778.5       778.5       778.4       778.4       778.4       778.4    
        778.4       778.4       778.4       778.4       778.4       778.3       778.3       778.3       778.3       778.3    
        778.3       778.4       778.5       778.5       778.6       778.6       778.7       778.8       778.8       778.9    
        778.9       779.0       779.0       779.1       779.2       779.3       779.6       780.2       781.1       782.1    
  33    777.7       778.3       778.4       778.4       778.4       778.4       778.4       778.4       778.4       778.4    
[...]
        778.7       778.7       778.5       778.7       778.8       778.9       779.0       779.0       779.1       779.2    
        779.2       779.3       779.3       779.4       779.5       779.6       779.9       780.5       781.4       782.4    
  27    778.0       778.6       778.8       778.8       778.8       778.8       778.8       778.8       778.8       778.8    
        778.8       778.7       778.7       778.7       778.7       778.7       778.7       778.7       778.7       778.7    
        778.7       778.6       778.6       778.7       778.8       778.9       778.9       779.0       779.1       779.1    
        779.2       779.2       779.3       779.3       779.4       779.6       779.9       780.4       781.3       782.4    
  28    778.0       778.5       778.7       778.7       778.7       778.7       778.7       778.7       778.7       778.7    
        778.7       778.7       778.7       778.7       778.7       778.6       778.6       778.6       778.6       778.6    
        778.6       778.6       778.6       778.7       778.7       778.8       778.9       778.9       779.0       779.1    
        779.1       779.2       779.2       779.3       779.4       779.5       779.8       780.4       781.3       782.3    
  29    777.9       778.5       778.7       778.7       778.7       778.7       778.6       778.6       778.6       778.6    
        778.6       778.6       778.6       778.6       778.6       778.6       778.6       778.5       778.5       778.5    
        778.6       778.6       778.6       778.7       778.7       778.8       778.8       778.9       779.0       779.0    
        779.1       779.1       779.2       779.2       779.3       779.5       779.8       780.3       781.2       782.3    
  30    777.9       778.4       778.6       778.6       778.6       778.6       778.6       778.6       778.6       778.6    
        778.5       778.5       778.5       778.5       778.5       778.5       778.5       778.5       778.5       778.5    
        778.5       778.5       778.6       778.6       778.7       778.7       778.8       778.8       778.9       779.0    
        779.0       779.1       779.1       779.2       779.3       779.4       779.7       780.3       781.2       782.2    
  31    777.8       778.4       778.6       778.6       778.5       778.5       778.5       778.5       778.5       778.5    
        778.5       778.5       778.5       778.4       778.4       778.4       778.4       778.4       778.4       778.4    
        778.4       778.5       778.5       778.6       778.6       778.7       778.7       778.8       778.9       778.9    
        779.0       779.0       779.1       779.1       779.2       779.4       779.7       780.2       781.1       782.2    
  32    777.8       778.3       778.5       778.5       778.5       778.5       778.4       778.4       778.4       778.4    
        778.4       778.4       778.4       778.4       778.4       778.3       778.3       778.3       778.3       778.3    
        778.3       778.4       778.5       778.5       778.6       778.6       778.7       778.8       778.8       778.9    
        778.9       779.0       779.0       779.1       779.2       779.3       779.6       780.2       781.1       782.1    
  33    777.7       778.3       778.4       778.4       778.4       778.4       778.4       778.4       778.4       778.4    
        778.3       778.3       778.3       778.3       778.3       778.3       778.3       778.2       778.2       778.0    
        778.2       778.3       778.4       778.5       778.5       778.6       778.7       778.7       778.8       778.8    
        778.9       778.9       779.0       779.1       779.1       779.3       779.6       780.1       781.0       782.1    
  34    777.6       778.2       778.4       778.4       778.4       778.3       778.3       778.3       778.3       778.3    
        778.3       778.3       778.3       778.2       778.2       778.2       778.2       778.2       778.2       778.1    
        778.2       778.3       778.4       778.4       778.5       778.6       778.6       778.7       778.7       778.8    
        778.8       778.9       779.0       779.0       779.1       779.2       779.5       780.1       781.0       782.0    
  35    777.6       778.2       778.3       778.3       778.3       778.3       778.3       778.2       778.2       778.2    
        778.2       778.2       778.2       778.2       778.2       778.1       778.1       778.1       778.1       778.2    
        778.2       778.3       778.3       778.4       778.5       778.5       778.6       778.6       778.7       778.7    
        778.8       778.9       778.9       779.0       779.0       779.2       779.5       780.0       780.9       782.0    
  36    777.5       778.1       778.3       778.3       778.2       778.2       778.2       778.2       778.2       778.2    
        778.1       778.1       778.1       778.1       778.1       778.1       778.1       778.1       778.1       778.1    
        778.2       778.2       778.3       778.4       778.4       778.5       778.5       778.6       778.6       778.7    
        778.8       778.8       778.9       778.9       779.0       779.2       779.4       780.0       780.9       781.9    
  37    777.5       778.1       778.2       778.2       778.2       778.1       778.1       778.1       778.1       778.1    
        778.1       778.1       778.0       778.0       778.0       778.0       778.0       778.0       778.1       778.1    
        778.1       778.2       778.3       778.3       778.4       778.4       778.5       778.5       778.6       778.7    
        778.7       778.8       778.8       778.9       779.0       779.1       779.4       779.9       780.8       781.9    
  38    777.4       778.0       778.2       778.2       778.1       778.1       778.1       778.0       778.0       778.0    
        778.0       778.0       778.0       778.0       777.9       777.9       777.9       778.0       778.0       778.0    
        778.1       778.2       778.2       778.3       778.3       778.4       778.4       778.5       778.6       778.6    
        778.7       778.7       778.8       778.8       778.9       779.1       779.4       779.9       780.8       781.8    
  39    777.4       777.9       778.1       778.1       778.1       778.0       778.0       778.0       778.0       778.0    
        777.9       777.9       777.9       777.9       777.9       777.8       777.8       777.9       777.9       778.0    
        778.1       778.1       778.2       778.2       778.3       778.4       778.4       778.5       778.5       778.6    
        778.6       778.7       778.7       778.8       778.9       779.0       779.3       779.8       780.7       781.8    
  40    777.3       777.9       778.1       778.1       778.0       778.0       777.9       777.9       777.9       777.9    
        777.9       777.9       777.8       777.8       777.8       777.7       777.6       777.8       777.9       778.0    
        778.0       778.1       778.1       778.2       778.3       778.3       778.4       778.4       778.5       778.5    
        778.6       778.6       778.7       778.7       778.8       779.0       779.3       779.8       780.6       781.7    
  41    777.3       777.8       778.0       778.0       777.9       777.9       777.9       777.9       777.8       777.8    
        777.8       777.8       777.8       777.8       777.7       777.7       777.7       777.8       777.8       777.9    
        778.0       778.0       778.1       778.2       778.2       778.3       778.3       778.4       778.4       778.5    
        778.5       778.6       778.7       778.7       778.8       778.9       779.2       779.7       780.6       781.7    
  42    777.2       777.8       778.0       777.9       777.9       777.8       777.8       777.8       777.8       777.8    
        777.7       777.7       777.7       777.7       777.7       777.7       777.7       777.8       777.8       777.9    
        777.9       778.0       778.1       778.1       778.2       778.2       778.3       778.3       778.4       778.5    
        778.5       778.6       778.6       778.7       778.7       778.9       779.2       779.7       780.5       781.6    
  43    777.2       777.7       777.9       777.9       777.8       777.8       777.7       777.7       777.7       777.7    
        777.7       777.7       777.7       777.7       777.7       777.7       777.7       777.7       777.8       777.9    
        777.9       778.0       778.0       778.1       778.1       778.2       778.3       778.3       778.4       778.4    
        778.5       778.5       778.6       778.6       778.7       778.8       779.1       779.6       780.5       781.5    
  44    777.1       777.7       777.9       777.8       777.8       777.7       777.7       777.7       777.6       777.6    
        777.6       777.6       777.6       777.6       777.6       777.6       777.7       777.7       777.8       777.8    
        777.9       777.9       778.0       778.0       778.1       778.2       778.2       778.3       778.3       778.4    
        778.4       778.5       778.5       778.6       778.7       778.8       779.1       779.6       780.4       781.5    
  45    777.1       777.6       777.8       777.8       777.7       777.7       777.6       777.6       777.6       777.6    
        777.5       777.5       777.5       777.5       777.6       777.6       777.6       777.7       777.7       777.8    
        777.8       777.9       778.0       778.0       778.1       778.1       778.2       778.2       778.3       778.3    
        778.4       778.4       778.5       778.5       778.6       778.8       779.0       779.5       780.4       781.4    
  46    777.0       777.6       777.8       777.8       777.7       777.6       777.5       777.5       777.5       777.5    
        777.5       777.5       777.5       777.5       777.5       777.5       777.6       777.6       777.7       777.7    
        777.8       777.9       777.9       778.0       778.0       778.1       778.1       778.2       778.3       778.3    
        778.4       778.4       778.5       778.5       778.6       778.7       779.0       779.5       780.3       781.4    
  47    777.0       777.5       777.7       777.7       777.6       777.5       777.5       777.4       777.4       777.4    
        777.4       777.4       777.4       777.3       777.4       777.5       777.5       777.6       777.6       777.7    
        777.8       777.8       777.9       777.9       778.0       778.1       778.1       778.2       778.2       778.3    
        778.3       778.4       778.4       778.5       778.5       778.7       778.9       779.4       780.3       781.3    
  48    776.9       777.5       777.7       777.7       777.6       777.5       777.4       777.4       777.2       777.3    
        777.3       777.3       777.3       777.1       777.3       777.4       777.5       777.5       777.6       777.7    
        777.7       777.8       777.9       777.9       778.0       778.0       778.1       778.1       778.2       778.2    
        778.3       778.3       778.4       778.4       778.5       778.6       778.9       779.4       780.2       781.3    
  49    776.9       777.4       777.6       777.6       777.5       777.5       777.4       777.4       777.3       777.3    
        777.3       777.3       777.3       777.3       777.3       777.4       777.4       777.5       777.6       777.6    
        777.7       777.8       777.8       777.9       777.9       778.0       778.0       778.1       778.1       778.2    
        778.2       778.3       778.3       778.4       778.5       778.6       778.9       779.3       780.2       781.2    
  50    776.8       777.4       777.6       777.6       777.5       777.4       777.4       777.4       777.3       777.3    
        777.3       777.3       777.3       777.3       777.3       777.3       777.4       777.5       777.5       777.6    
        777.7       777.7       777.8       777.8       777.9       778.0       778.0       778.1       778.1       778.2    
        778.2       778.3       778.3       778.4       778.4       778.6       778.8       779.3       780.1       781.2    
  51    776.8       777.3       777.5       777.5       777.5       777.4       777.4       777.4       777.3       777.3    
        777.3       777.3       777.3       777.3       777.3       777.3       777.3       777.4       777.5       777.6    
        777.6       777.7       777.8       777.8       777.9       777.9       778.0       778.0       778.1       778.1    
        778.2       778.2       778.3       778.3       778.4       778.5       778.8       779.3       780.1       781.1    
  52    776.7       777.3       777.5       777.5       777.4       777.4       777.4       777.4       777.3       777.3    
        777.3       777.3       777.3       777.3       777.3       777.3       777.2       777.3       777.5       777.5    
        777.6       777.7       777.7       777.8       777.8       777.9       777.9       778.0       778.0       778.1    
        778.1       778.2       778.2       778.3       778.4       778.5       778.7       779.2       780.0       781.1    
  53    776.7       777.2       777.4       777.5       777.4       777.4       777.4       777.3       777.3       777.3    
        777.3       777.3       777.3       777.3       777.3       777.3       777.3       777.4       777.5       777.5    
        777.6       777.7       777.7       777.8       777.8       777.9       777.9       778.0       778.0       778.1    
        778.1       778.2       778.2       778.2       778.3       778.4       778.7       779.2       780.0       781.0    
  54    776.6       777.2       777.4       777.4       777.4       777.3       777.3       777.3       777.3       777.3    
        777.3       777.3       777.3       777.3       777.3       777.3       777.4       777.4       777.5       777.5    
        777.6       777.6       777.7       777.7       777.8       777.8       777.9       777.9       778.0       778.0    
        778.1       778.1       778.2       778.2       778.3       778.4       778.6       779.1       779.9       781.0    
  55    776.4       777.0       777.2       777.3       777.3       777.3       777.3       777.3       777.3       777.3    
        777.3       777.3       777.3       777.3       777.3       777.4       777.4       777.4       777.5       777.5    
        777.5       777.6       777.6       777.7       777.7       777.8       777.8       777.8       777.9       777.9    
        778.0       778.0       778.1       778.1       778.2       778.3       778.5       779.0       779.8       780.8    
  56    776.1       776.7       777.0       777.1       777.1       777.1       777.2       777.2       777.2       777.2    
        777.2       777.2       777.2       777.3       777.3       777.3       777.3       777.4       777.4       777.4    
        777.4       777.5       777.5       777.5       777.6       777.6       777.6       777.7       777.7       777.7    
        777.8       777.8       777.9       777.9       777.9       778.1       778.3       778.7       779.5       780.5    
  57    775.5       776.1       776.5       776.6       776.7       776.8       776.8       776.8       776.8       776.9    
        776.9       776.9       776.9       776.9       777.0       777.0       777.0       777.0       777.1       777.1    
        777.1       777.1       777.2       777.2       777.2       777.2       777.3       777.3       777.3       777.4    
        777.4       777.4       777.4       777.5       777.5       777.6       777.8       778.2       778.9       779.9    
  58    774.2       775.0       775.5       775.7       775.8       775.9       775.9       775.9       775.9       776.0    
        776.0       776.0       776.0       776.1       776.1       776.1       776.1       776.1       776.2       776.2    
        776.2       776.2       776.3       776.3       776.3       776.3       776.4       776.4       776.4       776.4    
        776.5       776.5       776.5       776.5       776.6       776.6       776.8       777.1       777.7       778.6    
  59    772.4       773.2       773.8       774.0       774.2       774.2       774.3       774.3       774.3       774.3    
        774.4       774.4       774.4       774.4       774.4       774.5       774.5       774.5       774.5       774.6    
        774.6       774.6       774.6       774.7       774.7       774.7       774.7       774.7       774.8       774.8    
        774.8       774.8       774.9       774.9       774.9       775.0       775.1       775.4       776.0       776.7    
  60    770.3       771.2       771.7       772.0       772.1       772.2       772.3       772.3       772.3       772.3    
        772.3       772.4       772.4       772.4       772.4       772.5       772.5       772.5       772.5       772.5    
        772.6       772.6       772.6       772.6       772.7       772.7       772.7       772.7       772.8       772.8    
        772.8       772.8       772.8       772.9       772.9       773.0       773.1       773.4       773.9       774.7    
  61    768.2       769.0       769.6       769.8       770.0       770.1       770.1       770.1       770.1       770.2    
        770.2       770.2       770.2       770.2       770.3       770.3       770.3       770.3       770.4       770.4    
        770.4       770.4       770.5       770.5       770.5       770.5       770.5       770.6       770.6       770.6    
        770.6       770.7       770.7       770.7       770.7       770.8       770.9       771.2       771.8       772.6    
1
  VOLUMETRIC BUDGET FOR ENTIRE MODEL AT END OF TIME STEP  1 IN STRESS PERIOD   1
  ------------------------------------------------------------------------------

     CUMULATIVE VOLUMES      L**3       RATES FOR THIS TIME STEP      L**3/T
     ------------------                 ------------------------

           IN:                                      IN:
           ---                                      ---
             STORAGE =           0.0000               STORAGE =           0.0000
       CONSTANT HEAD =   895910208.0000         CONSTANT HEAD =      447955.0938
               WELLS =           0.0000                 WELLS =           0.0000
            RECHARGE =   285045600.0000              RECHARGE =      142522.7969

            TOTAL IN =  1180955776.0000              TOTAL IN =      590477.8750

          OUT:                                     OUT:
          ----                                     ----
             STORAGE =           0.0000               STORAGE =           0.0000
       CONSTANT HEAD =   884813824.0000         CONSTANT HEAD =      442406.9062
               WELLS =   296142016.0000                 WELLS =      148071.0000
            RECHARGE =           0.0000              RECHARGE =           0.0000

           TOTAL OUT =  1180955904.0000             TOTAL OUT =      590477.8750

            IN - OUT =        -128.0000              IN - OUT =           0.0000

 PERCENT DISCREPANCY =           0.00     PERCENT DISCREPANCY =           0.00






          TIME SUMMARY AT END OF TIME STEP   1 IN STRESS PERIOD    1
                    SECONDS     MINUTES      HOURS       DAYS        YEARS
                    -----------------------------------------------------------
   TIME STEP LENGTH 1.72800E+08 2.88000E+06  48000.      2000.0      5.4757    
 STRESS PERIOD TIME 1.72800E+08 2.88000E+06  48000.      2000.0      5.4757    
         TOTAL TIME 1.72800E+08 2.88000E+06  48000.      2000.0      5.4757    
1

 Run end date and time (yyyy/mm/dd hh:mm:ss): 2025/03/05 10:47:26
 Elapsed run time:  0.293 Seconds

