Get the name of the MODPATH simulation file.
Read the first two records of the simulation file to get mpnamFile and mplistFile ...
Allocate rectangular unstructured grid component.
Allocate time discretization data component ...
Allocate disMf6Grid.
Read DIS binary grid file.
Read time discretization data component ...
 
 ----------------------------------------------------------
 Cell connection data:
 ----------------------------------------------------------
 Format has two lines for each cell, listed by cell number.
 Line 1: Cell connections
 Line 1: Face assignment codes
 ----------------------------------------------------------
        1       2      52     613
        0   20101   30101   50101
 
        2       1       3      53     614
        0   10101   20101   30101   50101
 
        3       2       4      54     615
        0   10101   20101   30101   50101
 
        4       3       5      55     616
        0   10101   20101   30101   50101
 
        5       4       6      56     617
        0   10101   20101   30101   50101
 
        6       5       7      57     618
        0   10101   20101   30101   50101
 
        7       6       8      58     619
        0   10101   20101   30101   50101
 
        8       7       9      59     620
        0   10101   20101   30101   50101
 
        9       8      10      60     621
        0   10101   20101   30101   50101
 
       10       9      11      61     622
        0   10101   20101   30101   50101
 
       11      10      12      62     623
        0   10101   20101   30101   50101
 
       12      11      13      63     624
        0   10101   20101   30101   50101
 
       13      12      14      64     625
        0   10101   20101   30101   50101
 
       14      13      15      65     626
        0   10101   20101   30101   50101
 
       15      14      16      66     627
        0   10101   20101   30101   50101
 
       16      15      17      67     628
        0   10101   20101   30101   50101
 
       17      16      18      68     629
        0   10101   20101   30101   50101
 
       18      17      19      69     630
        0   10101   20101   30101   50101
 
       19      18      20      70     631
        0   10101   20101   30101   50101
 
       20      19      21      71     632
        0   10101   20101   30101   50101
 
       21      20      22      72     633
        0   10101   20101   30101   50101
 
       22      21      23      73     634
        0   10101   20101   30101   50101
 
       23      22      24      74     635
        0   10101   20101   30101   50101
 
       24      23      25      75     636
        0   10101   20101   30101   50101
 
       25      24      26      76     637
        0   10101   20101   30101   50101
 
       26      25      27      77     638
        0   10101   20101   30101   50101
 
       27      26      28      78     639
        0   10101   20101   30101   50101
 
       28      27      29      79     640
        0   10101   20101   30101   50101
 
       29      28      30      80     641
        0   10101   20101   30101   50101
 
       30      29      31      81     642
        0   10101   20101   30101   50101
 
       31      30      32      82     643
        0   10101   20101   30101   50101
 
       32      31      33      83     644
        0   10101   20101   30101   50101
 
       33      32      34      84     645
        0   10101   20101   30101   50101
 
       34      33      35      85     646
        0   10101   20101   30101   50101
 
       35      34      36      86     647
        0   10101   20101   30101   50101
 
       36      35      37      87     648
        0   10101   20101   30101   50101
 
       37      36      38      88     649
        0   10101   20101   30101   50101
 
       38      37      39      89     650
        0   10101   20101   30101   50101
 
       39      38      40      90     651
        0   10101   20101   30101   50101
 
       40      39      41      91     652
        0   10101   20101   30101   50101
 
       41      40      42      92     653
        0   10101   20101   30101   50101
 
       42      41      43      93     654
        0   10101   20101   30101   50101
 
       43      42      44      94     655
        0   10101   20101   30101   50101
 
       44      43      45      95     656
        0   10101   20101   30101   50101
 
       45      44      46      96     657
        0   10101   20101   30101   50101
 
       46      45      47      97     658
        0   10101   20101   30101   50101
 
       47      46      48      98     659
        0   10101   20101   30101   50101
 
       48      47      49      99     660
        0   10101   20101   30101   50101
 
       49      48      50     100     661
        0   10101   20101   30101   50101
 
       50      49      51     101     662
        0   10101   20101   30101   50101
 
       51      50     102     663
        0   10101   30101   50101
 
       52       1      53     103     664
        0   40101   20101   30101   50101
 
       53       2      52      54     104     665
        0   40101   10101   20101   30101   50101
 
       54       3      53      55     105     666
        0   40101   10101   20101   30101   50101
 
       55       4      54      56     106     667
        0   40101   10101   20101   30101   50101
 
       56       5      55      57     107     668
        0   40101   10101   20101   30101   50101
 
       57       6      56      58     108     669
        0   40101   10101   20101   30101   50101
 
       58       7      57      59     109     670
        0   40101   10101   20101   30101   50101
 
       59       8      58      60     110     671
        0   40101   10101   20101   30101   50101
 
       60       9      59      61     111     672
        0   40101   10101   20101   30101   50101
 
       61      10      60      62     112     673
        0   40101   10101   20101   30101   50101
 
       62      11      61      63     113     674
        0   40101   10101   20101   30101   50101
 
       63      12      62      64     114     675
        0   40101   10101   20101   30101   50101
 
       64      13      63      65     115     676
        0   40101   10101   20101   30101   50101
 
       65      14      64      66     116     677
        0   40101   10101   20101   30101   50101
 
       66      15      65      67     117     678
        0   40101   10101   20101   30101   50101
 
       67      16      66      68     118     679
        0   40101   10101   20101   30101   50101
 
       68      17      67      69     119     680
        0   40101   10101   20101   30101   50101
 
       69      18      68      70     120     681
        0   40101   10101   20101   30101   50101
 
       70      19      69      71     121     682
        0   40101   10101   20101   30101   50101
 
       71      20      70      72     122     683
        0   40101   10101   20101   30101   50101
 
       72      21      71      73     123     684
        0   40101   10101   20101   30101   50101
 
       73      22      72      74     124     685
        0   40101   10101   20101   30101   50101
 
       74      23      73      75     125     686
        0   40101   10101   20101   30101   50101
 
       75      24      74      76     126     687
        0   40101   10101   20101   30101   50101
 
       76      25      75      77     127     688
        0   40101   10101   20101   30101   50101
 
       77      26      76      78     128     689
        0   40101   10101   20101   30101   50101
 
       78      27      77      79     129     690
        0   40101   10101   20101   30101   50101
 
       79      28      78      80     130     691
        0   40101   10101   20101   30101   50101
 
       80      29      79      81     131     692
        0   40101   10101   20101   30101   50101
 
       81      30      80      82     132     693
        0   40101   10101   20101   30101   50101
 
       82      31      81      83     133     694
        0   40101   10101   20101   30101   50101
 
       83      32      82      84     134     695
        0   40101   10101   20101   30101   50101
 
       84      33      83      85     135     696
        0   40101   10101   20101   30101   50101
 
       85      34      84      86     136     697
        0   40101   10101   20101   30101   50101
 
       86      35      85      87     137     698
        0   40101   10101   20101   30101   50101
 
       87      36      86      88     138     699
        0   40101   10101   20101   30101   50101
 
       88      37      87      89     139     700
        0   40101   10101   20101   30101   50101
 
       89      38      88      90     140     701
        0   40101   10101   20101   30101   50101
 
       90      39      89      91     141     702
        0   40101   10101   20101   30101   50101
 
       91      40      90      92     142     703
        0   40101   10101   20101   30101   50101
 
       92      41      91      93     143     704
        0   40101   10101   20101   30101   50101
 
       93      42      92      94     144     705
        0   40101   10101   20101   30101   50101
 
       94      43      93      95     145     706
        0   40101   10101   20101   30101   50101
 
       95      44      94      96     146     707
        0   40101   10101   20101   30101   50101
 
       96      45      95      97     147     708
        0   40101   10101   20101   30101   50101
 
       97      46      96      98     148     709
        0   40101   10101   20101   30101   50101
 
       98      47      97      99     149     710
        0   40101   10101   20101   30101   50101
 
       99      48      98     100     150     711
        0   40101   10101   20101   30101   50101
 
      100      49      99     101     151     712
        0   40101   10101   20101   30101   50101
 
      101      50     100     102     152     713
        0   40101   10101   20101   30101   50101
 
      102      51     101     153     714
        0   40101   10101   30101   50101
 
      103      52     104     154     715
        0   40101   20101   30101   50101
 
      104      53     103     105     155     716
        0   40101   10101   20101   30101   50101
 
      105      54     104     106     156     717
        0   40101   10101   20101   30101   50101
 
      106      55     105     107     157     718
        0   40101   10101   20101   30101   50101
 
      107      56     106     108     158     719
        0   40101   10101   20101   30101   50101
 
      108      57     107     109     159     720
        0   40101   10101   20101   30101   50101
 
      109      58     108     110     160     721
        0   40101   10101   20101   30101   50101
 
      110      59     109     111     161     722
        0   40101   10101   20101   30101   50101
 
      111      60     110     112     162     723
        0   40101   10101   20101   30101   50101
 
      112      61     111     113     163     724
        0   40101   10101   20101   30101   50101
 
      113      62     112     114     164     725
        0   40101   10101   20101   30101   50101
 
      114      63     113     115     165     726
        0   40101   10101   20101   30101   50101
 
      115      64     114     116     166     727
        0   40101   10101   20101   30101   50101
 
      116      65     115     117     167     728
        0   40101   10101   20101   30101   50101
 
      117      66     116     118     168     729
        0   40101   10101   20101   30101   50101
 
      118      67     117     119     169     730
        0   40101   10101   20101   30101   50101
 
      119      68     118     120     170     731
        0   40101   10101   20101   30101   50101
 
      120      69     119     121     171     732
        0   40101   10101   20101   30101   50101
 
      121      70     120     122     172     733
        0   40101   10101   20101   30101   50101
 
      122      71     121     123     173     734
        0   40101   10101   20101   30101   50101
 
      123      72     122     124     174     735
        0   40101   10101   20101   30101   50101
 
      124      73     123     125     175     736
        0   40101   10101   20101   30101   50101
 
      125      74     124     126     176     737
        0   40101   10101   20101   30101   50101
 
      126      75     125     127     177     738
        0   40101   10101   20101   30101   50101
 
      127      76     126     128     178     739
        0   40101   10101   20101   30101   50101
 
      128      77     127     129     179     740
        0   40101   10101   20101   30101   50101
 
      129      78     128     130     180     741
        0   40101   10101   20101   30101   50101
 
      130      79     129     131     181     742
        0   40101   10101   20101   30101   50101
 
      131      80     130     132     182     743
        0   40101   10101   20101   30101   50101
 
      132      81     131     133     183     744
        0   40101   10101   20101   30101   50101
 
      133      82     132     134     184     745
        0   40101   10101   20101   30101   50101
 
      134      83     133     135     185     746
        0   40101   10101   20101   30101   50101
 
      135      84     134     136     186     747
        0   40101   10101   20101   30101   50101
 
      136      85     135     137     187     748
        0   40101   10101   20101   30101   50101
 
      137      86     136     138     188     749
        0   40101   10101   20101   30101   50101
 
      138      87     137     139     189     750
        0   40101   10101   20101   30101   50101
 
      139      88     138     140     190     751
        0   40101   10101   20101   30101   50101
 
      140      89     139     141     191     752
        0   40101   10101   20101   30101   50101
 
      141      90     140     142     192     753
        0   40101   10101   20101   30101   50101
 
      142      91     141     143     193     754
        0   40101   10101   20101   30101   50101
 
      143      92     142     144     194     755
        0   40101   10101   20101   30101   50101
 
      144      93     143     145     195     756
        0   40101   10101   20101   30101   50101
 
      145      94     144     146     196     757
        0   40101   10101   20101   30101   50101
 
      146      95     145     147     197     758
        0   40101   10101   20101   30101   50101
 
      147      96     146     148     198     759
        0   40101   10101   20101   30101   50101
 
      148      97     147     149     199     760
        0   40101   10101   20101   30101   50101
 
      149      98     148     150     200     761
        0   40101   10101   20101   30101   50101
 
      150      99     149     151     201     762
        0   40101   10101   20101   30101   50101
 
      151     100     150     152     202     763
        0   40101   10101   20101   30101   50101
 
      152     101     151     153     203     764
        0   40101   10101   20101   30101   50101
 
      153     102     152     204     765
        0   40101   10101   30101   50101
 
      154     103     155     205     766
        0   40101   20101   30101   50101
 
      155     104     154     156     206     767
        0   40101   10101   20101   30101   50101
 
      156     105     155     157     207     768
        0   40101   10101   20101   30101   50101
 
      157     106     156     158     208     769
        0   40101   10101   20101   30101   50101
 
      158     107     157     159     209     770
        0   40101   10101   20101   30101   50101
 
      159     108     158     160     210     771
        0   40101   10101   20101   30101   50101
 
      160     109     159     161     211     772
        0   40101   10101   20101   30101   50101
 
      161     110     160     162     212     773
        0   40101   10101   20101   30101   50101
 
      162     111     161     163     213     774
        0   40101   10101   20101   30101   50101
 
      163     112     162     164     214     775
        0   40101   10101   20101   30101   50101
 
      164     113     163     165     215     776
        0   40101   10101   20101   30101   50101
 
      165     114     164     166     216     777
        0   40101   10101   20101   30101   50101
 
      166     115     165     167     217     778
        0   40101   10101   20101   30101   50101
 
      167     116     166     168     218     779
        0   40101   10101   20101   30101   50101
 
      168     117     167     169     219     780
        0   40101   10101   20101   30101   50101
 
      169     118     168     170     220     781
        0   40101   10101   20101   30101   50101
 
      170     119     169     171     221     782
        0   40101   10101   20101   30101   50101
 
      171     120     170     172     222     783
        0   40101   10101   20101   30101   50101
 
      172     121     171     173     223     784
        0   40101   10101   20101   30101   50101
 
      173     122     172     174     224     785
        0   40101   10101   20101   30101   50101
 
      174     123     173     175     225     786
        0   40101   10101   20101   30101   50101
 
      175     124     174     176     226     787
        0   40101   10101   20101   30101   50101
 
      176     125     175     177     227     788
        0   40101   10101   20101   30101   50101
 
      177     126     176     178     228     789
        0   40101   10101   20101   30101   50101
 
      178     127     177     179     229     790
        0   40101   10101   20101   30101   50101
 
      179     128     178     180     230     791
        0   40101   10101   20101   30101   50101
 
      180     129     179     181     231     792
        0   40101   10101   20101   30101   50101
 
      181     130     180     182     232     793
        0   40101   10101   20101   30101   50101
 
      182     131     181     183     233     794
        0   40101   10101   20101   30101   50101
 
      183     132     182     184     234     795
        0   40101   10101   20101   30101   50101
 
      184     133     183     185     235     796
        0   40101   10101   20101   30101   50101
 
      185     134     184     186     236     797
        0   40101   10101   20101   30101   50101
 
      186     135     185     187     237     798
        0   40101   10101   20101   30101   50101
 
      187     136     186     188     238     799
        0   40101   10101   20101   30101   50101
 
      188     137     187     189     239     800
        0   40101   10101   20101   30101   50101
 
      189     138     188     190     240     801
        0   40101   10101   20101   30101   50101
 
      190     139     189     191     241     802
        0   40101   10101   20101   30101   50101
 
      191     140     190     192     242     803
        0   40101   10101   20101   30101   50101
 
      192     141     191     193     243     804
        0   40101   10101   20101   30101   50101
 
      193     142     192     194     244     805
        0   40101   10101   20101   30101   50101
 
      194     143     193     195     245     806
        0   40101   10101   20101   30101   50101
 
      195     144     194     196     246     807
        0   40101   10101   20101   30101   50101
 
      196     145     195     197     247     808
        0   40101   10101   20101   30101   50101
 
      197     146     196     198     248     809
        0   40101   10101   20101   30101   50101
 
      198     147     197     199     249     810
        0   40101   10101   20101   30101   50101
 
      199     148     198     200     250     811
        0   40101   10101   20101   30101   50101
 
      200     149     199     201     251     812
        0   40101   10101   20101   30101   50101
 
      201     150     200     202     252     813
        0   40101   10101   20101   30101   50101
 
      202     151     201     203     253     814
        0   40101   10101   20101   30101   50101
 
      203     152     202     204     254     815
        0   40101   10101   20101   30101   50101
 
      204     153     203     255     816
        0   40101   10101   30101   50101
 
      205     154     206     256     817
        0   40101   20101   30101   50101
 
      206     155     205     207     257     818
        0   40101   10101   20101   30101   50101
 
      207     156     206     208     258     819
        0   40101   10101   20101   30101   50101
 
      208     157     207     209     259     820
        0   40101   10101   20101   30101   50101
 
      209     158     208     210     260     821
        0   40101   10101   20101   30101   50101
 
      210     159     209     211     261     822
        0   40101   10101   20101   30101   50101
 
      211     160     210     212     262     823
        0   40101   10101   20101   30101   50101
 
      212     161     211     213     263     824
        0   40101   10101   20101   30101   50101
 
      213     162     212     214     264     825
        0   40101   10101   20101   30101   50101
 
      214     163     213     215     265     826
        0   40101   10101   20101   30101   50101
 
      215     164     214     216     266     827
        0   40101   10101   20101   30101   50101
 
      216     165     215     217     267     828
        0   40101   10101   20101   30101   50101
 
      217     166     216     218     268     829
        0   40101   10101   20101   30101   50101
 
      218     167     217     219     269     830
        0   40101   10101   20101   30101   50101
 
      219     168     218     220     270     831
        0   40101   10101   20101   30101   50101
 
      220     169     219     221     271     832
        0   40101   10101   20101   30101   50101
 
      221     170     220     222     272     833
        0   40101   10101   20101   30101   50101
 
      222     171     221     223     273     834
        0   40101   10101   20101   30101   50101
 
      223     172     222     224     274     835
        0   40101   10101   20101   30101   50101
 
      224     173     223     225     275     836
        0   40101   10101   20101   30101   50101
 
      225     174     224     226     276     837
        0   40101   10101   20101   30101   50101
 
      226     175     225     227     277     838
        0   40101   10101   20101   30101   50101
 
      227     176     226     228     278     839
        0   40101   10101   20101   30101   50101
 
      228     177     227     229     279     840
        0   40101   10101   20101   30101   50101
 
      229     178     228     230     280     841
        0   40101   10101   20101   30101   50101
 
      230     179     229     231     281     842
        0   40101   10101   20101   30101   50101
 
      231     180     230     232     282     843
        0   40101   10101   20101   30101   50101
 
      232     181     231     233     283     844
        0   40101   10101   20101   30101   50101
 
      233     182     232     234     284     845
        0   40101   10101   20101   30101   50101
 
      234     183     233     235     285     846
        0   40101   10101   20101   30101   50101
 
      235     184     234     236     286     847
        0   40101   10101   20101   30101   50101
 
      236     185     235     237     287     848
        0   40101   10101   20101   30101   50101
 
      237     186     236     238     288     849
        0   40101   10101   20101   30101   50101
 
      238     187     237     239     289     850
        0   40101   10101   20101   30101   50101
 
      239     188     238     240     290     851
        0   40101   10101   20101   30101   50101
 
      240     189     239     241     291     852
        0   40101   10101   20101   30101   50101
 
      241     190     240     242     292     853
        0   40101   10101   20101   30101   50101
 
      242     191     241     243     293     854
        0   40101   10101   20101   30101   50101
 
      243     192     242     244     294     855
        0   40101   10101   20101   30101   50101
 
      244     193     243     245     295     856
        0   40101   10101   20101   30101   50101
 
      245     194     244     246     296     857
        0   40101   10101   20101   30101   50101
 
      246     195     245     247     297     858
        0   40101   10101   20101   30101   50101
 
      247     196     246     248     298     859
        0   40101   10101   20101   30101   50101
 
      248     197     247     249     299     860
        0   40101   10101   20101   30101   50101
 
      249     198     248     250     300     861
        0   40101   10101   20101   30101   50101
 
      250     199     249     251     301     862
        0   40101   10101   20101   30101   50101
 
      251     200     250     252     302     863
        0   40101   10101   20101   30101   50101
 
      252     201     251     253     303     864
        0   40101   10101   20101   30101   50101
 
      253     202     252     254     304     865
        0   40101   10101   20101   30101   50101
 
      254     203     253     255     305     866
        0   40101   10101   20101   30101   50101
 
      255     204     254     306     867
        0   40101   10101   30101   50101
 
      256     205     257     307     868
        0   40101   20101   30101   50101
 
      257     206     256     258     308     869
        0   40101   10101   20101   30101   50101
 
      258     207     257     259     309     870
        0   40101   10101   20101   30101   50101
 
      259     208     258     260     310     871
        0   40101   10101   20101   30101   50101
 
      260     209     259     261     311     872
        0   40101   10101   20101   30101   50101
 
      261     210     260     262     312     873
        0   40101   10101   20101   30101   50101
 
      262     211     261     263     313     874
        0   40101   10101   20101   30101   50101
 
      263     212     262     264     314     875
        0   40101   10101   20101   30101   50101
 
      264     213     263     265     315     876
        0   40101   10101   20101   30101   50101
 
      265     214     264     266     316     877
        0   40101   10101   20101   30101   50101
 
      266     215     265     267     317     878
        0   40101   10101   20101   30101   50101
 
      267     216     266     268     318     879
        0   40101   10101   20101   30101   50101
 
      268     217     267     269     319     880
        0   40101   10101   20101   30101   50101
 
      269     218     268     270     320     881
        0   40101   10101   20101   30101   50101
 
      270     219     269     271     321     882
        0   40101   10101   20101   30101   50101
 
      271     220     270     272     322     883
        0   40101   10101   20101   30101   50101
 
      272     221     271     273     323     884
        0   40101   10101   20101   30101   50101
 
      273     222     272     274     324     885
        0   40101   10101   20101   30101   50101
 
      274     223     273     275     325     886
        0   40101   10101   20101   30101   50101
 
      275     224     274     276     326     887
        0   40101   10101   20101   30101   50101
 
      276     225     275     277     327     888
        0   40101   10101   20101   30101   50101
 
      277     226     276     278     328     889
        0   40101   10101   20101   30101   50101
 
      278     227     277     279     329     890
        0   40101   10101   20101   30101   50101
 
      279     228     278     280     330     891
        0   40101   10101   20101   30101   50101
 
      280     229     279     281     331     892
        0   40101   10101   20101   30101   50101
 
      281     230     280     282     332     893
        0   40101   10101   20101   30101   50101
 
      282     231     281     283     333     894
        0   40101   10101   20101   30101   50101
 
      283     232     282     284     334     895
        0   40101   10101   20101   30101   50101
 
      284     233     283     285     335     896
        0   40101   10101   20101   30101   50101
 
      285     234     284     286     336     897
        0   40101   10101   20101   30101   50101
 
      286     235     285     287     337     898
        0   40101   10101   20101   30101   50101
 
      287     236     286     288     338     899
        0   40101   10101   20101   30101   50101
 
      288     237     287     289     339     900
        0   40101   10101   20101   30101   50101
 
      289     238     288     290     340     901
        0   40101   10101   20101   30101   50101
 
      290     239     289     291     341     902
        0   40101   10101   20101   30101   50101
 
      291     240     290     292     342     903
        0   40101   10101   20101   30101   50101
 
      292     241     291     293     343     904
        0   40101   10101   20101   30101   50101
 
      293     242     292     294     344     905
        0   40101   10101   20101   30101   50101
 
      294     243     293     295     345     906
        0   40101   10101   20101   30101   50101
 
      295     244     294     296     346     907
        0   40101   10101   20101   30101   50101
 
      296     245     295     297     347     908
        0   40101   10101   20101   30101   50101
 
      297     246     296     298     348     909
        0   40101   10101   20101   30101   50101
 
      298     247     297     299     349     910
        0   40101   10101   20101   30101   50101
 
      299     248     298     300     350     911
        0   40101   10101   20101   30101   50101
 
      300     249     299     301     351     912
        0   40101   10101   20101   30101   50101
 
      301     250     300     302     352     913
        0   40101   10101   20101   30101   50101
 
      302     251     301     303     353     914
        0   40101   10101   20101   30101   50101
 
      303     252     302     304     354     915
        0   40101   10101   20101   30101   50101
 
      304     253     303     305     355     916
        0   40101   10101   20101   30101   50101
 
      305     254     304     306     356     917
        0   40101   10101   20101   30101   50101
 
      306     255     305     357     918
        0   40101   10101   30101   50101
 
      307     256     308     358     919
        0   40101   20101   30101   50101
 
      308     257     307     309     359     920
        0   40101   10101   20101   30101   50101
 
      309     258     308     310     360     921
        0   40101   10101   20101   30101   50101
 
      310     259     309     311     361     922
        0   40101   10101   20101   30101   50101
 
      311     260     310     312     362     923
        0   40101   10101   20101   30101   50101
 
      312     261     311     313     363     924
        0   40101   10101   20101   30101   50101
 
      313     262     312     314     364     925
        0   40101   10101   20101   30101   50101
 
      314     263     313     315     365     926
        0   40101   10101   20101   30101   50101
 
      315     264     314     316     366     927
        0   40101   10101   20101   30101   50101
 
      316     265     315     317     367     928
        0   40101   10101   20101   30101   50101
 
      317     266     316     318     368     929
        0   40101   10101   20101   30101   50101
 
      318     267     317     319     369     930
        0   40101   10101   20101   30101   50101
 
      319     268     318     320     370     931
        0   40101   10101   20101   30101   50101
 
      320     269     319     321     371     932
        0   40101   10101   20101   30101   50101
 
      321     270     320     322     372     933
        0   40101   10101   20101   30101   50101
 
      322     271     321     323     373     934
        0   40101   10101   20101   30101   50101
 
      323     272     322     324     374     935
        0   40101   10101   20101   30101   50101
 
      324     273     323     325     375     936
        0   40101   10101   20101   30101   50101
 
      325     274     324     326     376     937
        0   40101   10101   20101   30101   50101
 
      326     275     325     327     377     938
        0   40101   10101   20101   30101   50101
 
      327     276     326     328     378     939
        0   40101   10101   20101   30101   50101
 
      328     277     327     329     379     940
        0   40101   10101   20101   30101   50101
 
      329     278     328     330     380     941
        0   40101   10101   20101   30101   50101
 
      330     279     329     331     381     942
        0   40101   10101   20101   30101   50101
 
      331     280     330     332     382     943
        0   40101   10101   20101   30101   50101
 
      332     281     331     333     383     944
        0   40101   10101   20101   30101   50101
 
      333     282     332     334     384     945
        0   40101   10101   20101   30101   50101
 
      334     283     333     335     385     946
        0   40101   10101   20101   30101   50101
 
      335     284     334     336     386     947
        0   40101   10101   20101   30101   50101
 
      336     285     335     337     387     948
        0   40101   10101   20101   30101   50101
 
      337     286     336     338     388     949
        0   40101   10101   20101   30101   50101
 
      338     287     337     339     389     950
        0   40101   10101   20101   30101   50101
 
      339     288     338     340     390     951
        0   40101   10101   20101   30101   50101
 
      340     289     339     341     391     952
        0   40101   10101   20101   30101   50101
 
      341     290     340     342     392     953
        0   40101   10101   20101   30101   50101
 
      342     291     341     343     393     954
        0   40101   10101   20101   30101   50101
 
      343     292     342     344     394     955
        0   40101   10101   20101   30101   50101
 
      344     293     343     345     395     956
        0   40101   10101   20101   30101   50101
 
      345     294     344     346     396     957
        0   40101   10101   20101   30101   50101
 
      346     295     345     347     397     958
        0   40101   10101   20101   30101   50101
 
      347     296     346     348     398     959
        0   40101   10101   20101   30101   50101
 
      348     297     347     349     399     960
        0   40101   10101   20101   30101   50101
 
      349     298     348     350     400     961
        0   40101   10101   20101   30101   50101
 
      350     299     349     351     401     962
        0   40101   10101   20101   30101   50101
 
      351     300     350     352     402     963
        0   40101   10101   20101   30101   50101
 
      352     301     351     353     403     964
        0   40101   10101   20101   30101   50101
 
      353     302     352     354     404     965
        0   40101   10101   20101   30101   50101
 
      354     303     353     355     405     966
        0   40101   10101   20101   30101   50101
 
      355     304     354     356     406     967
        0   40101   10101   20101   30101   50101
 
      356     305     355     357     407     968
        0   40101   10101   20101   30101   50101
 
      357     306     356     408     969
        0   40101   10101   30101   50101
 
      358     307     359     409     970
        0   40101   20101   30101   50101
 
      359     308     358     360     410     971
        0   40101   10101   20101   30101   50101
 
      360     309     359     361     411     972
        0   40101   10101   20101   30101   50101
 
      361     310     360     362     412     973
        0   40101   10101   20101   30101   50101
 
      362     311     361     363     413     974
        0   40101   10101   20101   30101   50101
 
      363     312     362     364     414     975
        0   40101   10101   20101   30101   50101
 
      364     313     363     365     415     976
        0   40101   10101   20101   30101   50101
 
      365     314     364     366     416     977
        0   40101   10101   20101   30101   50101
 
      366     315     365     367     417     978
        0   40101   10101   20101   30101   50101
 
      367     316     366     368     418     979
        0   40101   10101   20101   30101   50101
 
      368     317     367     369     419     980
        0   40101   10101   20101   30101   50101
 
      369     318     368     370     420     981
        0   40101   10101   20101   30101   50101
 
      370     319     369     371     421     982
        0   40101   10101   20101   30101   50101
 
      371     320     370     372     422     983
        0   40101   10101   20101   30101   50101
 
      372     321     371     373     423     984
        0   40101   10101   20101   30101   50101
 
      373     322     372     374     424     985
        0   40101   10101   20101   30101   50101
 
      374     323     373     375     425     986
        0   40101   10101   20101   30101   50101
 
      375     324     374     376     426     987
        0   40101   10101   20101   30101   50101
 
      376     325     375     377     427     988
        0   40101   10101   20101   30101   50101
 
      377     326     376     378     428     989
        0   40101   10101   20101   30101   50101
 
      378     327     377     379     429     990
        0   40101   10101   20101   30101   50101
 
      379     328     378     380     430     991
        0   40101   10101   20101   30101   50101
 
      380     329     379     381     431     992
        0   40101   10101   20101   30101   50101
 
      381     330     380     382     432     993
        0   40101   10101   20101   30101   50101
 
      382     331     381     383     433     994
        0   40101   10101   20101   30101   50101
 
      383     332     382     384     434     995
        0   40101   10101   20101   30101   50101
 
      384     333     383     385     435     996
        0   40101   10101   20101   30101   50101
 
      385     334     384     386     436     997
        0   40101   10101   20101   30101   50101
 
      386     335     385     387     437     998
        0   40101   10101   20101   30101   50101
 
      387     336     386     388     438     999
        0   40101   10101   20101   30101   50101
 
      388     337     387     389     439    1000
        0   40101   10101   20101   30101   50101
 
      389     338     388     390     440    1001
        0   40101   10101   20101   30101   50101
 
      390     339     389     391     441    1002
        0   40101   10101   20101   30101   50101
 
      391     340     390     392     442    1003
        0   40101   10101   20101   30101   50101
 
      392     341     391     393     443    1004
        0   40101   10101   20101   30101   50101
 
      393     342     392     394     444    1005
        0   40101   10101   20101   30101   50101
 
      394     343     393     395     445    1006
        0   40101   10101   20101   30101   50101
 
      395     344     394     396     446    1007
        0   40101   10101   20101   30101   50101
 
      396     345     395     397     447    1008
        0   40101   10101   20101   30101   50101
 
      397     346     396     398     448    1009
        0   40101   10101   20101   30101   50101
 
      398     347     397     399     449    1010
        0   40101   10101   20101   30101   50101
 
      399     348     398     400     450    1011
        0   40101   10101   20101   30101   50101
 
      400     349     399     401     451    1012
        0   40101   10101   20101   30101   50101
 
      401     350     400     402     452    1013
        0   40101   10101   20101   30101   50101
 
      402     351     401     403     453    1014
        0   40101   10101   20101   30101   50101
 
      403     352     402     404     454    1015
        0   40101   10101   20101   30101   50101
 
      404     353     403     405     455    1016
        0   40101   10101   20101   30101   50101
 
      405     354     404     406     456    1017
        0   40101   10101   20101   30101   50101
 
      406     355     405     407     457    1018
        0   40101   10101   20101   30101   50101
 
      407     356     406     408     458    1019
        0   40101   10101   20101   30101   50101
 
      408     357     407     459    1020
        0   40101   10101   30101   50101
 
      409     358     410     460    1021
        0   40101   20101   30101   50101
 
      410     359     409     411     461    1022
        0   40101   10101   20101   30101   50101
 
      411     360     410     412     462    1023
        0   40101   10101   20101   30101   50101
 
      412     361     411     413     463    1024
        0   40101   10101   20101   30101   50101
 
      413     362     412     414     464    1025
        0   40101   10101   20101   30101   50101
 
      414     363     413     415     465    1026
        0   40101   10101   20101   30101   50101
 
      415     364     414     416     466    1027
        0   40101   10101   20101   30101   50101
 
      416     365     415     417     467    1028
        0   40101   10101   20101   30101   50101
 
      417     366     416     418     468    1029
        0   40101   10101   20101   30101   50101
 
      418     367     417     419     469    1030
        0   40101   10101   20101   30101   50101
 
      419     368     418     420     470    1031
        0   40101   10101   20101   30101   50101
 
      420     369     419     421     471    1032
        0   40101   10101   20101   30101   50101
 
      421     370     420     422     472    1033
        0   40101   10101   20101   30101   50101
 
      422     371     421     423     473    1034
        0   40101   10101   20101   30101   50101
 
      423     372     422     424     474    1035
        0   40101   10101   20101   30101   50101
 
      424     373     423     425     475    1036
        0   40101   10101   20101   30101   50101
 
      425     374     424     426     476    1037
        0   40101   10101   20101   30101   50101
 
      426     375     425     427     477    1038
        0   40101   10101   20101   30101   50101
 
      427     376     426     428     478    1039
        0   40101   10101   20101   30101   50101
 
      428     377     427     429     479    1040
        0   40101   10101   20101   30101   50101
 
      429     378     428     430     480    1041
        0   40101   10101   20101   30101   50101
 
      430     379     429     431     481    1042
        0   40101   10101   20101   30101   50101
 
      431     380     430     432     482    1043
        0   40101   10101   20101   30101   50101
 
      432     381     431     433     483    1044
        0   40101   10101   20101   30101   50101
 
      433     382     432     434     484    1045
        0   40101   10101   20101   30101   50101
 
      434     383     433     435     485    1046
        0   40101   10101   20101   30101   50101
 
      435     384     434     436     486    1047
        0   40101   10101   20101   30101   50101
 
      436     385     435     437     487    1048
        0   40101   10101   20101   30101   50101
 
      437     386     436     438     488    1049
        0   40101   10101   20101   30101   50101
 
      438     387     437     439     489    1050
        0   40101   10101   20101   30101   50101
 
      439     388     438     440     490    1051
        0   40101   10101   20101   30101   50101
 
      440     389     439     441     491    1052
        0   40101   10101   20101   30101   50101
 
      441     390     440     442     492    1053
        0   40101   10101   20101   30101   50101
 
      442     391     441     443     493    1054
        0   40101   10101   20101   30101   50101
 
      443     392     442     444     494    1055
        0   40101   10101   20101   30101   50101
 
      444     393     443     445     495    1056
        0   40101   10101   20101   30101   50101
 
      445     394     444     446     496    1057
        0   40101   10101   20101   30101   50101
 
      446     395     445     447     497    1058
        0   40101   10101   20101   30101   50101
 
      447     396     446     448     498    1059
        0   40101   10101   20101   30101   50101
 
      448     397     447     449     499    1060
        0   40101   10101   20101   30101   50101
 
      449     398     448     450     500    1061
        0   40101   10101   20101   30101   50101
 
      450     399     449     451     501    1062
        0   40101   10101   20101   30101   50101
 
      451     400     450     452     502    1063
        0   40101   10101   20101   30101   50101
 
      452     401     451     453     503    1064
        0   40101   10101   20101   30101   50101
 
      453     402     452     454     504    1065
        0   40101   10101   20101   30101   50101
 
      454     403     453     455     505    1066
        0   40101   10101   20101   30101   50101
 
      455     404     454     456     506    1067
        0   40101   10101   20101   30101   50101
 
      456     405     455     457     507    1068
        0   40101   10101   20101   30101   50101
 
      457     406     456     458     508    1069
        0   40101   10101   20101   30101   50101
 
      458     407     457     459     509    1070
        0   40101   10101   20101   30101   50101
 
      459     408     458     510    1071
        0   40101   10101   30101   50101
 
      460     409     461     511    1072
        0   40101   20101   30101   50101
 
      461     410     460     462     512    1073
        0   40101   10101   20101   30101   50101
 
      462     411     461     463     513    1074
        0   40101   10101   20101   30101   50101
 
      463     412     462     464     514    1075
        0   40101   10101   20101   30101   50101
 
      464     413     463     465     515    1076
        0   40101   10101   20101   30101   50101
 
      465     414     464     466     516    1077
        0   40101   10101   20101   30101   50101
 
      466     415     465     467     517    1078
        0   40101   10101   20101   30101   50101
 
      467     416     466     468     518    1079
        0   40101   10101   20101   30101   50101
 
      468     417     467     469     519    1080
        0   40101   10101   20101   30101   50101
 
      469     418     468     470     520    1081
        0   40101   10101   20101   30101   50101
 
      470     419     469     471     521    1082
        0   40101   10101   20101   30101   50101
 
      471     420     470     472     522    1083
        0   40101   10101   20101   30101   50101
 
      472     421     471     473     523    1084
        0   40101   10101   20101   30101   50101
 
      473     422     472     474     524    1085
        0   40101   10101   20101   30101   50101
 
      474     423     473     475     525    1086
        0   40101   10101   20101   30101   50101
 
      475     424     474     476     526    1087
        0   40101   10101   20101   30101   50101
 
      476     425     475     477     527    1088
        0   40101   10101   20101   30101   50101
 
      477     426     476     478     528    1089
        0   40101   10101   20101   30101   50101
 
      478     427     477     479     529    1090
        0   40101   10101   20101   30101   50101
 
      479     428     478     480     530    1091
        0   40101   10101   20101   30101   50101
 
      480     429     479     481     531    1092
        0   40101   10101   20101   30101   50101
 
      481     430     480     482     532    1093
        0   40101   10101   20101   30101   50101
 
      482     431     481     483     533    1094
        0   40101   10101   20101   30101   50101
 
      483     432     482     484     534    1095
        0   40101   10101   20101   30101   50101
 
      484     433     483     485     535    1096
        0   40101   10101   20101   30101   50101
 
      485     434     484     486     536    1097
        0   40101   10101   20101   30101   50101
 
      486     435     485     487     537    1098
        0   40101   10101   20101   30101   50101
 
      487     436     486     488     538    1099
        0   40101   10101   20101   30101   50101
 
      488     437     487     489     539    1100
        0   40101   10101   20101   30101   50101
 
      489     438     488     490     540    1101
        0   40101   10101   20101   30101   50101
 
      490     439     489     491     541    1102
        0   40101   10101   20101   30101   50101
 
      491     440     490     492     542    1103
        0   40101   10101   20101   30101   50101
 
      492     441     491     493     543    1104
        0   40101   10101   20101   30101   50101
 
      493     442     492     494     544    1105
        0   40101   10101   20101   30101   50101
 
      494     443     493     495     545    1106
        0   40101   10101   20101   30101   50101
 
      495     444     494     496     546    1107
        0   40101   10101   20101   30101   50101
 
      496     445     495     497     547    1108
        0   40101   10101   20101   30101   50101
 
      497     446     496     498     548    1109
        0   40101   10101   20101   30101   50101
 
      498     447     497     499     549    1110
        0   40101   10101   20101   30101   50101
 
      499     448     498     500     550    1111
        0   40101   10101   20101   30101   50101
 
      500     449     499     501     551    1112
        0   40101   10101   20101   30101   50101
 
      501     450     500     502     552    1113
        0   40101   10101   20101   30101   50101
 
      502     451     501     503     553    1114
        0   40101   10101   20101   30101   50101
 
      503     452     502     504     554    1115
        0   40101   10101   20101   30101   50101
 
      504     453     503     505     555    1116
        0   40101   10101   20101   30101   50101
 
      505     454     504     506     556    1117
        0   40101   10101   20101   30101   50101
 
      506     455     505     507     557    1118
        0   40101   10101   20101   30101   50101
 
      507     456     506     508     558    1119
        0   40101   10101   20101   30101   50101
 
      508     457     507     509     559    1120
        0   40101   10101   20101   30101   50101
 
      509     458     508     510     560    1121
        0   40101   10101   20101   30101   50101
 
      510     459     509     561    1122
        0   40101   10101   30101   50101
 
      511     460     512     562    1123
        0   40101   20101   30101   50101
 
      512     461     511     513     563    1124
        0   40101   10101   20101   30101   50101
 
      513     462     512     514     564    1125
        0   40101   10101   20101   30101   50101
 
      514     463     513     515     565    1126
        0   40101   10101   20101   30101   50101
 
      515     464     514     516     566    1127
        0   40101   10101   20101   30101   50101
 
      516     465     515     517     567    1128
        0   40101   10101   20101   30101   50101
 
      517     466     516     518     568    1129
        0   40101   10101   20101   30101   50101
 
      518     467     517     519     569    1130
        0   40101   10101   20101   30101   50101
 
      519     468     518     520     570    1131
        0   40101   10101   20101   30101   50101
 
      520     469     519     521     571    1132
        0   40101   10101   20101   30101   50101
 
      521     470     520     522     572    1133
        0   40101   10101   20101   30101   50101
 
      522     471     521     523     573    1134
        0   40101   10101   20101   30101   50101
 
      523     472     522     524     574    1135
        0   40101   10101   20101   30101   50101
 
      524     473     523     525     575    1136
        0   40101   10101   20101   30101   50101
 
      525     474     524     526     576    1137
        0   40101   10101   20101   30101   50101
 
      526     475     525     527     577    1138
        0   40101   10101   20101   30101   50101
 
      527     476     526     528     578    1139
        0   40101   10101   20101   30101   50101
 
      528     477     527     529     579    1140
        0   40101   10101   20101   30101   50101
 
      529     478     528     530     580    1141
        0   40101   10101   20101   30101   50101
 
      530     479     529     531     581    1142
        0   40101   10101   20101   30101   50101
 
      531     480     530     532     582    1143
        0   40101   10101   20101   30101   50101
 
      532     481     531     533     583    1144
        0   40101   10101   20101   30101   50101
 
      533     482     532     534     584    1145
        0   40101   10101   20101   30101   50101
 
      534     483     533     535     585    1146
        0   40101   10101   20101   30101   50101
 
      535     484     534     536     586    1147
        0   40101   10101   20101   30101   50101
 
      536     485     535     537     587    1148
        0   40101   10101   20101   30101   50101
 
      537     486     536     538     588    1149
        0   40101   10101   20101   30101   50101
 
      538     487     537     539     589    1150
        0   40101   10101   20101   30101   50101
 
      539     488     538     540     590    1151
        0   40101   10101   20101   30101   50101
 
      540     489     539     541     591    1152
        0   40101   10101   20101   30101   50101
 
      541     490     540     542     592    1153
        0   40101   10101   20101   30101   50101
 
      542     491     541     543     593    1154
        0   40101   10101   20101   30101   50101
 
      543     492     542     544     594    1155
        0   40101   10101   20101   30101   50101
 
      544     493     543     545     595    1156
        0   40101   10101   20101   30101   50101
 
      545     494     544     546     596    1157
        0   40101   10101   20101   30101   50101
 
      546     495     545     547     597    1158
        0   40101   10101   20101   30101   50101
 
      547     496     546     548     598    1159
        0   40101   10101   20101   30101   50101
 
      548     497     547     549     599    1160
        0   40101   10101   20101   30101   50101
 
      549     498     548     550     600    1161
        0   40101   10101   20101   30101   50101
 
      550     499     549     551     601    1162
        0   40101   10101   20101   30101   50101
 
      551     500     550     552     602    1163
        0   40101   10101   20101   30101   50101
 
      552     501     551     553     603    1164
        0   40101   10101   20101   30101   50101
 
      553     502     552     554     604    1165
        0   40101   10101   20101   30101   50101
 
      554     503     553     555     605    1166
        0   40101   10101   20101   30101   50101
 
      555     504     554     556     606    1167
        0   40101   10101   20101   30101   50101
 
      556     505     555     557     607    1168
        0   40101   10101   20101   30101   50101
 
      557     506     556     558     608    1169
        0   40101   10101   20101   30101   50101
 
      558     507     557     559     609    1170
        0   40101   10101   20101   30101   50101
 
      559     508     558     560     610    1171
        0   40101   10101   20101   30101   50101
 
      560     509     559     561     611    1172
        0   40101   10101   20101   30101   50101
 
      561     510     560     612    1173
        0   40101   10101   30101   50101
 
      562     511     563    1174
        0   40101   20101   50101
 
      563     512     562     564    1175
        0   40101   10101   20101   50101
 
      564     513     563     565    1176
        0   40101   10101   20101   50101
 
      565     514     564     566    1177
        0   40101   10101   20101   50101
 
      566     515     565     567    1178
        0   40101   10101   20101   50101
 
      567     516     566     568    1179
        0   40101   10101   20101   50101
 
      568     517     567     569    1180
        0   40101   10101   20101   50101
 
      569     518     568     570    1181
        0   40101   10101   20101   50101
 
      570     519     569     571    1182
        0   40101   10101   20101   50101
 
      571     520     570     572    1183
        0   40101   10101   20101   50101
 
      572     521     571     573    1184
        0   40101   10101   20101   50101
 
      573     522     572     574    1185
        0   40101   10101   20101   50101
 
      574     523     573     575    1186
        0   40101   10101   20101   50101
 
      575     524     574     576    1187
        0   40101   10101   20101   50101
 
      576     525     575     577    1188
        0   40101   10101   20101   50101
 
      577     526     576     578    1189
        0   40101   10101   20101   50101
 
      578     527     577     579    1190
        0   40101   10101   20101   50101
 
      579     528     578     580    1191
        0   40101   10101   20101   50101
 
      580     529     579     581    1192
        0   40101   10101   20101   50101
 
      581     530     580     582    1193
        0   40101   10101   20101   50101
 
      582     531     581     583    1194
        0   40101   10101   20101   50101
 
      583     532     582     584    1195
        0   40101   10101   20101   50101
 
      584     533     583     585    1196
        0   40101   10101   20101   50101
 
      585     534     584     586    1197
        0   40101   10101   20101   50101
 
      586     535     585     587    1198
        0   40101   10101   20101   50101
 
      587     536     586     588    1199
        0   40101   10101   20101   50101
 
      588     537     587     589    1200
        0   40101   10101   20101   50101
 
      589     538     588     590    1201
        0   40101   10101   20101   50101
 
      590     539     589     591    1202
        0   40101   10101   20101   50101
 
      591     540     590     592    1203
        0   40101   10101   20101   50101
 
      592     541     591     593    1204
        0   40101   10101   20101   50101
 
      593     542     592     594    1205
        0   40101   10101   20101   50101
 
      594     543     593     595    1206
        0   40101   10101   20101   50101
 
      595     544     594     596    1207
        0   40101   10101   20101   50101
 
      596     545     595     597    1208
        0   40101   10101   20101   50101
 
      597     546     596     598    1209
        0   40101   10101   20101   50101
 
      598     547     597     599    1210
        0   40101   10101   20101   50101
 
      599     548     598     600    1211
        0   40101   10101   20101   50101
 
      600     549     599     601    1212
        0   40101   10101   20101   50101
 
      601     550     600     602    1213
        0   40101   10101   20101   50101
 
      602     551     601     603    1214
        0   40101   10101   20101   50101
 
      603     552     602     604    1215
        0   40101   10101   20101   50101
 
      604     553     603     605    1216
        0   40101   10101   20101   50101
 
      605     554     604     606    1217
        0   40101   10101   20101   50101
 
      606     555     605     607    1218
        0   40101   10101   20101   50101
 
      607     556     606     608    1219
        0   40101   10101   20101   50101
 
      608     557     607     609    1220
        0   40101   10101   20101   50101
 
      609     558     608     610    1221
        0   40101   10101   20101   50101
 
      610     559     609     611    1222
        0   40101   10101   20101   50101
 
      611     560     610     612    1223
        0   40101   10101   20101   50101
 
      612     561     611    1224
        0   40101   10101   50101
 
      613       1     614     664    1225
        0   60101   20101   30101   50101
 
      614       2     613     615     665    1226
        0   60101   10101   20101   30101   50101
 
      615       3     614     616     666    1227
        0   60101   10101   20101   30101   50101
 
      616       4     615     617     667    1228
        0   60101   10101   20101   30101   50101
 
      617       5     616     618     668    1229
        0   60101   10101   20101   30101   50101
 
      618       6     617     619     669    1230
        0   60101   10101   20101   30101   50101
 
      619       7     618     620     670    1231
        0   60101   10101   20101   30101   50101
 
      620       8     619     621     671    1232
        0   60101   10101   20101   30101   50101
 
      621       9     620     622     672    1233
        0   60101   10101   20101   30101   50101
 
      622      10     621     623     673    1234
        0   60101   10101   20101   30101   50101
 
      623      11     622     624     674    1235
        0   60101   10101   20101   30101   50101
 
      624      12     623     625     675    1236
        0   60101   10101   20101   30101   50101
 
      625      13     624     626     676    1237
        0   60101   10101   20101   30101   50101
 
      626      14     625     627     677    1238
        0   60101   10101   20101   30101   50101
 
      627      15     626     628     678    1239
        0   60101   10101   20101   30101   50101
 
      628      16     627     629     679    1240
        0   60101   10101   20101   30101   50101
 
      629      17     628     630     680    1241
        0   60101   10101   20101   30101   50101
 
      630      18     629     631     681    1242
        0   60101   10101   20101   30101   50101
 
      631      19     630     632     682    1243
        0   60101   10101   20101   30101   50101
 
      632      20     631     633     683    1244
        0   60101   10101   20101   30101   50101
 
      633      21     632     634     684    1245
        0   60101   10101   20101   30101   50101
 
      634      22     633     635     685    1246
        0   60101   10101   20101   30101   50101
 
      635      23     634     636     686    1247
        0   60101   10101   20101   30101   50101
 
      636      24     635     637     687    1248
        0   60101   10101   20101   30101   50101
 
      637      25     636     638     688    1249
        0   60101   10101   20101   30101   50101
 
      638      26     637     639     689    1250
        0   60101   10101   20101   30101   50101
 
      639      27     638     640     690    1251
        0   60101   10101   20101   30101   50101
 
      640      28     639     641     691    1252
        0   60101   10101   20101   30101   50101
 
      641      29     640     642     692    1253
        0   60101   10101   20101   30101   50101
 
      642      30     641     643     693    1254
        0   60101   10101   20101   30101   50101
 
      643      31     642     644     694    1255
        0   60101   10101   20101   30101   50101
 
      644      32     643     645     695    1256
        0   60101   10101   20101   30101   50101
 
      645      33     644     646     696    1257
        0   60101   10101   20101   30101   50101
 
      646      34     645     647     697    1258
        0   60101   10101   20101   30101   50101
 
      647      35     646     648     698    1259
        0   60101   10101   20101   30101   50101
 
      648      36     647     649     699    1260
        0   60101   10101   20101   30101   50101
 
      649      37     648     650     700    1261
        0   60101   10101   20101   30101   50101
 
      650      38     649     651     701    1262
        0   60101   10101   20101   30101   50101
 
      651      39     650     652     702    1263
        0   60101   10101   20101   30101   50101
 
      652      40     651     653     703    1264
        0   60101   10101   20101   30101   50101
 
      653      41     652     654     704    1265
        0   60101   10101   20101   30101   50101
 
      654      42     653     655     705    1266
        0   60101   10101   20101   30101   50101
 
      655      43     654     656     706    1267
        0   60101   10101   20101   30101   50101
 
      656      44     655     657     707    1268
        0   60101   10101   20101   30101   50101
 
      657      45     656     658     708    1269
        0   60101   10101   20101   30101   50101
 
      658      46     657     659     709    1270
        0   60101   10101   20101   30101   50101
 
      659      47     658     660     710    1271
        0   60101   10101   20101   30101   50101
 
      660      48     659     661     711    1272
        0   60101   10101   20101   30101   50101
 
      661      49     660     662     712    1273
        0   60101   10101   20101   30101   50101
 
      662      50     661     663     713    1274
        0   60101   10101   20101   30101   50101
 
      663      51     662     714    1275
        0   60101   10101   30101   50101
 
      664      52     613     665     715    1276
        0   60101   40101   20101   30101   50101
 
      665      53     614     664     666     716    1277
        0   60101   40101   10101   20101   30101   50101
 
      666      54     615     665     667     717    1278
        0   60101   40101   10101   20101   30101   50101
 
      667      55     616     666     668     718    1279
        0   60101   40101   10101   20101   30101   50101
 
      668      56     617     667     669     719    1280
        0   60101   40101   10101   20101   30101   50101
 
      669      57     618     668     670     720    1281
        0   60101   40101   10101   20101   30101   50101
 
      670      58     619     669     671     721    1282
        0   60101   40101   10101   20101   30101   50101
 
      671      59     620     670     672     722    1283
        0   60101   40101   10101   20101   30101   50101
 
      672      60     621     671     673     723    1284
        0   60101   40101   10101   20101   30101   50101
 
      673      61     622     672     674     724    1285
        0   60101   40101   10101   20101   30101   50101
 
      674      62     623     673     675     725    1286
        0   60101   40101   10101   20101   30101   50101
 
      675      63     624     674     676     726    1287
        0   60101   40101   10101   20101   30101   50101
 
      676      64     625     675     677     727    1288
        0   60101   40101   10101   20101   30101   50101
 
      677      65     626     676     678     728    1289
        0   60101   40101   10101   20101   30101   50101
 
      678      66     627     677     679     729    1290
        0   60101   40101   10101   20101   30101   50101
 
      679      67     628     678     680     730    1291
        0   60101   40101   10101   20101   30101   50101
 
      680      68     629     679     681     731    1292
        0   60101   40101   10101   20101   30101   50101
 
      681      69     630     680     682     732    1293
        0   60101   40101   10101   20101   30101   50101
 
      682      70     631     681     683     733    1294
        0   60101   40101   10101   20101   30101   50101
 
      683      71     632     682     684     734    1295
        0   60101   40101   10101   20101   30101   50101
 
      684      72     633     683     685     735    1296
        0   60101   40101   10101   20101   30101   50101
 
      685      73     634     684     686     736    1297
        0   60101   40101   10101   20101   30101   50101
 
      686      74     635     685     687     737    1298
        0   60101   40101   10101   20101   30101   50101
 
      687      75     636     686     688     738    1299
        0   60101   40101   10101   20101   30101   50101
 
      688      76     637     687     689     739    1300
        0   60101   40101   10101   20101   30101   50101
 
      689      77     638     688     690     740    1301
        0   60101   40101   10101   20101   30101   50101
 
      690      78     639     689     691     741    1302
        0   60101   40101   10101   20101   30101   50101
 
      691      79     640     690     692     742    1303
        0   60101   40101   10101   20101   30101   50101
 
      692      80     641     691     693     743    1304
        0   60101   40101   10101   20101   30101   50101
 
      693      81     642     692     694     744    1305
        0   60101   40101   10101   20101   30101   50101
 
      694      82     643     693     695     745    1306
        0   60101   40101   10101   20101   30101   50101
 
      695      83     644     694     696     746    1307
        0   60101   40101   10101   20101   30101   50101
 
      696      84     645     695     697     747    1308
        0   60101   40101   10101   20101   30101   50101
 
      697      85     646     696     698     748    1309
        0   60101   40101   10101   20101   30101   50101
 
      698      86     647     697     699     749    1310
        0   60101   40101   10101   20101   30101   50101
 
      699      87     648     698     700     750    1311
        0   60101   40101   10101   20101   30101   50101
 
      700      88     649     699     701     751    1312
        0   60101   40101   10101   20101   30101   50101
 
      701      89     650     700     702     752    1313
        0   60101   40101   10101   20101   30101   50101
 
      702      90     651     701     703     753    1314
        0   60101   40101   10101   20101   30101   50101
 
      703      91     652     702     704     754    1315
        0   60101   40101   10101   20101   30101   50101
 
      704      92     653     703     705     755    1316
        0   60101   40101   10101   20101   30101   50101
 
      705      93     654     704     706     756    1317
        0   60101   40101   10101   20101   30101   50101
 
      706      94     655     705     707     757    1318
        0   60101   40101   10101   20101   30101   50101
 
      707      95     656     706     708     758    1319
        0   60101   40101   10101   20101   30101   50101
 
      708      96     657     707     709     759    1320
        0   60101   40101   10101   20101   30101   50101
 
      709      97     658     708     710     760    1321
        0   60101   40101   10101   20101   30101   50101
 
      710      98     659     709     711     761    1322
        0   60101   40101   10101   20101   30101   50101
 
      711      99     660     710     712     762    1323
        0   60101   40101   10101   20101   30101   50101
 
      712     100     661     711     713     763    1324
        0   60101   40101   10101   20101   30101   50101
 
      713     101     662     712     714     764    1325
        0   60101   40101   10101   20101   30101   50101
 
      714     102     663     713     765    1326
        0   60101   40101   10101   30101   50101
 
      715     103     664     716     766    1327
        0   60101   40101   20101   30101   50101
 
      716     104     665     715     717     767    1328
        0   60101   40101   10101   20101   30101   50101
 
      717     105     666     716     718     768    1329
        0   60101   40101   10101   20101   30101   50101
 
      718     106     667     717     719     769    1330
        0   60101   40101   10101   20101   30101   50101
 
      719     107     668     718     720     770    1331
        0   60101   40101   10101   20101   30101   50101
 
      720     108     669     719     721     771    1332
        0   60101   40101   10101   20101   30101   50101
 
      721     109     670     720     722     772    1333
        0   60101   40101   10101   20101   30101   50101
 
      722     110     671     721     723     773    1334
        0   60101   40101   10101   20101   30101   50101
 
      723     111     672     722     724     774    1335
        0   60101   40101   10101   20101   30101   50101
 
      724     112     673     723     725     775    1336
        0   60101   40101   10101   20101   30101   50101
 
      725     113     674     724     726     776    1337
        0   60101   40101   10101   20101   30101   50101
 
      726     114     675     725     727     777    1338
        0   60101   40101   10101   20101   30101   50101
 
      727     115     676     726     728     778    1339
        0   60101   40101   10101   20101   30101   50101
 
      728     116     677     727     729     779    1340
        0   60101   40101   10101   20101   30101   50101
 
      729     117     678     728     730     780    1341
        0   60101   40101   10101   20101   30101   50101
 
      730     118     679     729     731     781    1342
        0   60101   40101   10101   20101   30101   50101
 
      731     119     680     730     732     782    1343
        0   60101   40101   10101   20101   30101   50101
 
      732     120     681     731     733     783    1344
        0   60101   40101   10101   20101   30101   50101
 
      733     121     682     732     734     784    1345
        0   60101   40101   10101   20101   30101   50101
 
      734     122     683     733     735     785    1346
        0   60101   40101   10101   20101   30101   50101
 
      735     123     684     734     736     786    1347
        0   60101   40101   10101   20101   30101   50101
 
      736     124     685     735     737     787    1348
        0   60101   40101   10101   20101   30101   50101
 
      737     125     686     736     738     788    1349
        0   60101   40101   10101   20101   30101   50101
 
      738     126     687     737     739     789    1350
        0   60101   40101   10101   20101   30101   50101
 
      739     127     688     738     740     790    1351
        0   60101   40101   10101   20101   30101   50101
 
      740     128     689     739     741     791    1352
        0   60101   40101   10101   20101   30101   50101
 
      741     129     690     740     742     792    1353
        0   60101   40101   10101   20101   30101   50101
 
      742     130     691     741     743     793    1354
        0   60101   40101   10101   20101   30101   50101
 
      743     131     692     742     744     794    1355
        0   60101   40101   10101   20101   30101   50101
 
      744     132     693     743     745     795    1356
        0   60101   40101   10101   20101   30101   50101
 
      745     133     694     744     746     796    1357
        0   60101   40101   10101   20101   30101   50101
 
      746     134     695     745     747     797    1358
        0   60101   40101   10101   20101   30101   50101
 
      747     135     696     746     748     798    1359
        0   60101   40101   10101   20101   30101   50101
 
      748     136     697     747     749     799    1360
        0   60101   40101   10101   20101   30101   50101
 
      749     137     698     748     750     800    1361
        0   60101   40101   10101   20101   30101   50101
 
      750     138     699     749     751     801    1362
        0   60101   40101   10101   20101   30101   50101
 
      751     139     700     750     752     802    1363
        0   60101   40101   10101   20101   30101   50101
 
      752     140     701     751     753     803    1364
        0   60101   40101   10101   20101   30101   50101
 
      753     141     702     752     754     804    1365
        0   60101   40101   10101   20101   30101   50101
 
      754     142     703     753     755     805    1366
        0   60101   40101   10101   20101   30101   50101
 
      755     143     704     754     756     806    1367
        0   60101   40101   10101   20101   30101   50101
 
      756     144     705     755     757     807    1368
        0   60101   40101   10101   20101   30101   50101
 
      757     145     706     756     758     808    1369
        0   60101   40101   10101   20101   30101   50101
 
      758     146     707     757     759     809    1370
        0   60101   40101   10101   20101   30101   50101
 
      759     147     708     758     760     810    1371
        0   60101   40101   10101   20101   30101   50101
 
      760     148     709     759     761     811    1372
        0   60101   40101   10101   20101   30101   50101
 
      761     149     710     760     762     812    1373
        0   60101   40101   10101   20101   30101   50101
 
      762     150     711     761     763     813    1374
        0   60101   40101   10101   20101   30101   50101
 
      763     151     712     762     764     814    1375
        0   60101   40101   10101   20101   30101   50101
 
      764     152     713     763     765     815    1376
        0   60101   40101   10101   20101   30101   50101
 
      765     153     714     764     816    1377
        0   60101   40101   10101   30101   50101
 
      766     154     715     767     817    1378
        0   60101   40101   20101   30101   50101
 
      767     155     716     766     768     818    1379
        0   60101   40101   10101   20101   30101   50101
 
      768     156     717     767     769     819    1380
        0   60101   40101   10101   20101   30101   50101
 
      769     157     718     768     770     820    1381
        0   60101   40101   10101   20101   30101   50101
 
      770     158     719     769     771     821    1382
        0   60101   40101   10101   20101   30101   50101
 
      771     159     720     770     772     822    1383
        0   60101   40101   10101   20101   30101   50101
 
      772     160     721     771     773     823    1384
        0   60101   40101   10101   20101   30101   50101
 
      773     161     722     772     774     824    1385
        0   60101   40101   10101   20101   30101   50101
 
      774     162     723     773     775     825    1386
        0   60101   40101   10101   20101   30101   50101
 
      775     163     724     774     776     826    1387
        0   60101   40101   10101   20101   30101   50101
 
      776     164     725     775     777     827    1388
        0   60101   40101   10101   20101   30101   50101
 
      777     165     726     776     778     828    1389
        0   60101   40101   10101   20101   30101   50101
 
      778     166     727     777     779     829    1390
        0   60101   40101   10101   20101   30101   50101
 
      779     167     728     778     780     830    1391
        0   60101   40101   10101   20101   30101   50101
 
      780     168     729     779     781     831    1392
        0   60101   40101   10101   20101   30101   50101
 
[...]
        0   60101   40101   10101   20101   30101
 
     5923    5311    5872    5922    5924    5974
        0   60101   40101   10101   20101   30101
 
     5924    5312    5873    5923    5925    5975
        0   60101   40101   10101   20101   30101
 
     5925    5313    5874    5924    5926    5976
        0   60101   40101   10101   20101   30101
 
     5926    5314    5875    5925    5927    5977
        0   60101   40101   10101   20101   30101
 
     5927    5315    5876    5926    5928    5978
        0   60101   40101   10101   20101   30101
 
     5928    5316    5877    5927    5929    5979
        0   60101   40101   10101   20101   30101
 
     5929    5317    5878    5928    5930    5980
        0   60101   40101   10101   20101   30101
 
     5930    5318    5879    5929    5931    5981
        0   60101   40101   10101   20101   30101
 
     5931    5319    5880    5930    5932    5982
        0   60101   40101   10101   20101   30101
 
     5932    5320    5881    5931    5933    5983
        0   60101   40101   10101   20101   30101
 
     5933    5321    5882    5932    5934    5984
        0   60101   40101   10101   20101   30101
 
     5934    5322    5883    5933    5935    5985
        0   60101   40101   10101   20101   30101
 
     5935    5323    5884    5934    5936    5986
        0   60101   40101   10101   20101   30101
 
     5936    5324    5885    5935    5937    5987
        0   60101   40101   10101   20101   30101
 
     5937    5325    5886    5936    5938    5988
        0   60101   40101   10101   20101   30101
 
     5938    5326    5887    5937    5939    5989
        0   60101   40101   10101   20101   30101
 
     5939    5327    5888    5938    5940    5990
        0   60101   40101   10101   20101   30101
 
     5940    5328    5889    5939    5941    5991
        0   60101   40101   10101   20101   30101
 
     5941    5329    5890    5940    5942    5992
        0   60101   40101   10101   20101   30101
 
     5942    5330    5891    5941    5943    5993
        0   60101   40101   10101   20101   30101
 
     5943    5331    5892    5942    5944    5994
        0   60101   40101   10101   20101   30101
 
     5944    5332    5893    5943    5945    5995
        0   60101   40101   10101   20101   30101
 
     5945    5333    5894    5944    5946    5996
        0   60101   40101   10101   20101   30101
 
     5946    5334    5895    5945    5947    5997
        0   60101   40101   10101   20101   30101
 
     5947    5335    5896    5946    5948    5998
        0   60101   40101   10101   20101   30101
 
     5948    5336    5897    5947    5949    5999
        0   60101   40101   10101   20101   30101
 
     5949    5337    5898    5948    5950    6000
        0   60101   40101   10101   20101   30101
 
     5950    5338    5899    5949    5951    6001
        0   60101   40101   10101   20101   30101
 
     5951    5339    5900    5950    5952    6002
        0   60101   40101   10101   20101   30101
 
     5952    5340    5901    5951    5953    6003
        0   60101   40101   10101   20101   30101
 
     5953    5341    5902    5952    5954    6004
        0   60101   40101   10101   20101   30101
 
     5954    5342    5903    5953    5955    6005
        0   60101   40101   10101   20101   30101
 
     5955    5343    5904    5954    5956    6006
        0   60101   40101   10101   20101   30101
 
     5956    5344    5905    5955    5957    6007
        0   60101   40101   10101   20101   30101
 
     5957    5345    5906    5956    5958    6008
        0   60101   40101   10101   20101   30101
 
     5958    5346    5907    5957    5959    6009
        0   60101   40101   10101   20101   30101
 
     5959    5347    5908    5958    5960    6010
        0   60101   40101   10101   20101   30101
 
     5960    5348    5909    5959    5961    6011
        0   60101   40101   10101   20101   30101
 
     5961    5349    5910    5960    5962    6012
        0   60101   40101   10101   20101   30101
 
     5962    5350    5911    5961    5963    6013
        0   60101   40101   10101   20101   30101
 
     5963    5351    5912    5962    5964    6014
        0   60101   40101   10101   20101   30101
 
     5964    5352    5913    5963    5965    6015
        0   60101   40101   10101   20101   30101
 
     5965    5353    5914    5964    5966    6016
        0   60101   40101   10101   20101   30101
 
     5966    5354    5915    5965    5967    6017
        0   60101   40101   10101   20101   30101
 
     5967    5355    5916    5966    6018
        0   60101   40101   10101   30101
 
     5968    5356    5917    5969    6019
        0   60101   40101   20101   30101
 
     5969    5357    5918    5968    5970    6020
        0   60101   40101   10101   20101   30101
 
     5970    5358    5919    5969    5971    6021
        0   60101   40101   10101   20101   30101
 
     5971    5359    5920    5970    5972    6022
        0   60101   40101   10101   20101   30101
 
     5972    5360    5921    5971    5973    6023
        0   60101   40101   10101   20101   30101
 
     5973    5361    5922    5972    5974    6024
        0   60101   40101   10101   20101   30101
 
     5974    5362    5923    5973    5975    6025
        0   60101   40101   10101   20101   30101
 
     5975    5363    5924    5974    5976    6026
        0   60101   40101   10101   20101   30101
 
     5976    5364    5925    5975    5977    6027
        0   60101   40101   10101   20101   30101
 
     5977    5365    5926    5976    5978    6028
        0   60101   40101   10101   20101   30101
 
     5978    5366    5927    5977    5979    6029
        0   60101   40101   10101   20101   30101
 
     5979    5367    5928    5978    5980    6030
        0   60101   40101   10101   20101   30101
 
     5980    5368    5929    5979    5981    6031
        0   60101   40101   10101   20101   30101
 
     5981    5369    5930    5980    5982    6032
        0   60101   40101   10101   20101   30101
 
     5982    5370    5931    5981    5983    6033
        0   60101   40101   10101   20101   30101
 
     5983    5371    5932    5982    5984    6034
        0   60101   40101   10101   20101   30101
 
     5984    5372    5933    5983    5985    6035
        0   60101   40101   10101   20101   30101
 
     5985    5373    5934    5984    5986    6036
        0   60101   40101   10101   20101   30101
 
     5986    5374    5935    5985    5987    6037
        0   60101   40101   10101   20101   30101
 
     5987    5375    5936    5986    5988    6038
        0   60101   40101   10101   20101   30101
 
     5988    5376    5937    5987    5989    6039
        0   60101   40101   10101   20101   30101
 
     5989    5377    5938    5988    5990    6040
        0   60101   40101   10101   20101   30101
 
     5990    5378    5939    5989    5991    6041
        0   60101   40101   10101   20101   30101
 
     5991    5379    5940    5990    5992    6042
        0   60101   40101   10101   20101   30101
 
     5992    5380    5941    5991    5993    6043
        0   60101   40101   10101   20101   30101
 
     5993    5381    5942    5992    5994    6044
        0   60101   40101   10101   20101   30101
 
     5994    5382    5943    5993    5995    6045
        0   60101   40101   10101   20101   30101
 
     5995    5383    5944    5994    5996    6046
        0   60101   40101   10101   20101   30101
 
     5996    5384    5945    5995    5997    6047
        0   60101   40101   10101   20101   30101
 
     5997    5385    5946    5996    5998    6048
        0   60101   40101   10101   20101   30101
 
     5998    5386    5947    5997    5999    6049
        0   60101   40101   10101   20101   30101
 
     5999    5387    5948    5998    6000    6050
        0   60101   40101   10101   20101   30101
 
     6000    5388    5949    5999    6001    6051
        0   60101   40101   10101   20101   30101
 
     6001    5389    5950    6000    6002    6052
        0   60101   40101   10101   20101   30101
 
     6002    5390    5951    6001    6003    6053
        0   60101   40101   10101   20101   30101
 
     6003    5391    5952    6002    6004    6054
        0   60101   40101   10101   20101   30101
 
     6004    5392    5953    6003    6005    6055
        0   60101   40101   10101   20101   30101
 
     6005    5393    5954    6004    6006    6056
        0   60101   40101   10101   20101   30101
 
     6006    5394    5955    6005    6007    6057
        0   60101   40101   10101   20101   30101
 
     6007    5395    5956    6006    6008    6058
        0   60101   40101   10101   20101   30101
 
     6008    5396    5957    6007    6009    6059
        0   60101   40101   10101   20101   30101
 
     6009    5397    5958    6008    6010    6060
        0   60101   40101   10101   20101   30101
 
     6010    5398    5959    6009    6011    6061
        0   60101   40101   10101   20101   30101
 
     6011    5399    5960    6010    6012    6062
        0   60101   40101   10101   20101   30101
 
     6012    5400    5961    6011    6013    6063
        0   60101   40101   10101   20101   30101
 
     6013    5401    5962    6012    6014    6064
        0   60101   40101   10101   20101   30101
 
     6014    5402    5963    6013    6015    6065
        0   60101   40101   10101   20101   30101
 
     6015    5403    5964    6014    6016    6066
        0   60101   40101   10101   20101   30101
 
     6016    5404    5965    6015    6017    6067
        0   60101   40101   10101   20101   30101
 
     6017    5405    5966    6016    6018    6068
        0   60101   40101   10101   20101   30101
 
     6018    5406    5967    6017    6069
        0   60101   40101   10101   30101
 
     6019    5407    5968    6020    6070
        0   60101   40101   20101   30101
 
     6020    5408    5969    6019    6021    6071
        0   60101   40101   10101   20101   30101
 
     6021    5409    5970    6020    6022    6072
        0   60101   40101   10101   20101   30101
 
     6022    5410    5971    6021    6023    6073
        0   60101   40101   10101   20101   30101
 
     6023    5411    5972    6022    6024    6074
        0   60101   40101   10101   20101   30101
 
     6024    5412    5973    6023    6025    6075
        0   60101   40101   10101   20101   30101
 
     6025    5413    5974    6024    6026    6076
        0   60101   40101   10101   20101   30101
 
     6026    5414    5975    6025    6027    6077
        0   60101   40101   10101   20101   30101
 
     6027    5415    5976    6026    6028    6078
        0   60101   40101   10101   20101   30101
 
     6028    5416    5977    6027    6029    6079
        0   60101   40101   10101   20101   30101
 
     6029    5417    5978    6028    6030    6080
        0   60101   40101   10101   20101   30101
 
     6030    5418    5979    6029    6031    6081
        0   60101   40101   10101   20101   30101
 
     6031    5419    5980    6030    6032    6082
        0   60101   40101   10101   20101   30101
 
     6032    5420    5981    6031    6033    6083
        0   60101   40101   10101   20101   30101
 
     6033    5421    5982    6032    6034    6084
        0   60101   40101   10101   20101   30101
 
     6034    5422    5983    6033    6035    6085
        0   60101   40101   10101   20101   30101
 
     6035    5423    5984    6034    6036    6086
        0   60101   40101   10101   20101   30101
 
     6036    5424    5985    6035    6037    6087
        0   60101   40101   10101   20101   30101
 
     6037    5425    5986    6036    6038    6088
        0   60101   40101   10101   20101   30101
 
     6038    5426    5987    6037    6039    6089
        0   60101   40101   10101   20101   30101
 
     6039    5427    5988    6038    6040    6090
        0   60101   40101   10101   20101   30101
 
     6040    5428    5989    6039    6041    6091
        0   60101   40101   10101   20101   30101
 
     6041    5429    5990    6040    6042    6092
        0   60101   40101   10101   20101   30101
 
     6042    5430    5991    6041    6043    6093
        0   60101   40101   10101   20101   30101
 
     6043    5431    5992    6042    6044    6094
        0   60101   40101   10101   20101   30101
 
     6044    5432    5993    6043    6045    6095
        0   60101   40101   10101   20101   30101
 
     6045    5433    5994    6044    6046    6096
        0   60101   40101   10101   20101   30101
 
     6046    5434    5995    6045    6047    6097
        0   60101   40101   10101   20101   30101
 
     6047    5435    5996    6046    6048    6098
        0   60101   40101   10101   20101   30101
 
     6048    5436    5997    6047    6049    6099
        0   60101   40101   10101   20101   30101
 
     6049    5437    5998    6048    6050    6100
        0   60101   40101   10101   20101   30101
 
     6050    5438    5999    6049    6051    6101
        0   60101   40101   10101   20101   30101
 
     6051    5439    6000    6050    6052    6102
        0   60101   40101   10101   20101   30101
 
     6052    5440    6001    6051    6053    6103
        0   60101   40101   10101   20101   30101
 
     6053    5441    6002    6052    6054    6104
        0   60101   40101   10101   20101   30101
 
     6054    5442    6003    6053    6055    6105
        0   60101   40101   10101   20101   30101
 
     6055    5443    6004    6054    6056    6106
        0   60101   40101   10101   20101   30101
 
     6056    5444    6005    6055    6057    6107
        0   60101   40101   10101   20101   30101
 
     6057    5445    6006    6056    6058    6108
        0   60101   40101   10101   20101   30101
 
     6058    5446    6007    6057    6059    6109
        0   60101   40101   10101   20101   30101
 
     6059    5447    6008    6058    6060    6110
        0   60101   40101   10101   20101   30101
 
     6060    5448    6009    6059    6061    6111
        0   60101   40101   10101   20101   30101
 
     6061    5449    6010    6060    6062    6112
        0   60101   40101   10101   20101   30101
 
     6062    5450    6011    6061    6063    6113
        0   60101   40101   10101   20101   30101
 
     6063    5451    6012    6062    6064    6114
        0   60101   40101   10101   20101   30101
 
     6064    5452    6013    6063    6065    6115
        0   60101   40101   10101   20101   30101
 
     6065    5453    6014    6064    6066    6116
        0   60101   40101   10101   20101   30101
 
     6066    5454    6015    6065    6067    6117
        0   60101   40101   10101   20101   30101
 
     6067    5455    6016    6066    6068    6118
        0   60101   40101   10101   20101   30101
 
     6068    5456    6017    6067    6069    6119
        0   60101   40101   10101   20101   30101
 
     6069    5457    6018    6068    6120
        0   60101   40101   10101   30101
 
     6070    5458    6019    6071
        0   60101   40101   20101
 
     6071    5459    6020    6070    6072
        0   60101   40101   10101   20101
 
     6072    5460    6021    6071    6073
        0   60101   40101   10101   20101
 
     6073    5461    6022    6072    6074
        0   60101   40101   10101   20101
 
     6074    5462    6023    6073    6075
        0   60101   40101   10101   20101
 
     6075    5463    6024    6074    6076
        0   60101   40101   10101   20101
 
     6076    5464    6025    6075    6077
        0   60101   40101   10101   20101
 
     6077    5465    6026    6076    6078
        0   60101   40101   10101   20101
 
     6078    5466    6027    6077    6079
        0   60101   40101   10101   20101
 
     6079    5467    6028    6078    6080
        0   60101   40101   10101   20101
 
     6080    5468    6029    6079    6081
        0   60101   40101   10101   20101
 
     6081    5469    6030    6080    6082
        0   60101   40101   10101   20101
 
     6082    5470    6031    6081    6083
        0   60101   40101   10101   20101
 
     6083    5471    6032    6082    6084
        0   60101   40101   10101   20101
 
     6084    5472    6033    6083    6085
        0   60101   40101   10101   20101
 
     6085    5473    6034    6084    6086
        0   60101   40101   10101   20101
 
     6086    5474    6035    6085    6087
        0   60101   40101   10101   20101
 
     6087    5475    6036    6086    6088
        0   60101   40101   10101   20101
 
     6088    5476    6037    6087    6089
        0   60101   40101   10101   20101
 
     6089    5477    6038    6088    6090
        0   60101   40101   10101   20101
 
     6090    5478    6039    6089    6091
        0   60101   40101   10101   20101
 
     6091    5479    6040    6090    6092
        0   60101   40101   10101   20101
 
     6092    5480    6041    6091    6093
        0   60101   40101   10101   20101
 
     6093    5481    6042    6092    6094
        0   60101   40101   10101   20101
 
     6094    5482    6043    6093    6095
        0   60101   40101   10101   20101
 
     6095    5483    6044    6094    6096
        0   60101   40101   10101   20101
 
     6096    5484    6045    6095    6097
        0   60101   40101   10101   20101
 
     6097    5485    6046    6096    6098
        0   60101   40101   10101   20101
 
     6098    5486    6047    6097    6099
        0   60101   40101   10101   20101
 
     6099    5487    6048    6098    6100
        0   60101   40101   10101   20101
 
     6100    5488    6049    6099    6101
        0   60101   40101   10101   20101
 
     6101    5489    6050    6100    6102
        0   60101   40101   10101   20101
 
     6102    5490    6051    6101    6103
        0   60101   40101   10101   20101
 
     6103    5491    6052    6102    6104
        0   60101   40101   10101   20101
 
     6104    5492    6053    6103    6105
        0   60101   40101   10101   20101
 
     6105    5493    6054    6104    6106
        0   60101   40101   10101   20101
 
     6106    5494    6055    6105    6107
        0   60101   40101   10101   20101
 
     6107    5495    6056    6106    6108
        0   60101   40101   10101   20101
 
     6108    5496    6057    6107    6109
        0   60101   40101   10101   20101
 
     6109    5497    6058    6108    6110
        0   60101   40101   10101   20101
 
     6110    5498    6059    6109    6111
        0   60101   40101   10101   20101
 
     6111    5499    6060    6110    6112
        0   60101   40101   10101   20101
 
     6112    5500    6061    6111    6113
        0   60101   40101   10101   20101
 
     6113    5501    6062    6112    6114
        0   60101   40101   10101   20101
 
     6114    5502    6063    6113    6115
        0   60101   40101   10101   20101
 
     6115    5503    6064    6114    6116
        0   60101   40101   10101   20101
 
     6116    5504    6065    6115    6117
        0   60101   40101   10101   20101
 
     6117    5505    6066    6116    6118
        0   60101   40101   10101   20101
 
     6118    5506    6067    6117    6119
        0   60101   40101   10101   20101
 
     6119    5507    6068    6118    6120
        0   60101   40101   10101   20101
 
     6120    5508    6069    6119
        0   60101   40101   10101
 
Allocate budget reader component.
Open budget file in budget reader.
Allocate head reader component.
Open head file in head reader component.
Allocate MODPATH basic data component.
Read MODPATH basic data component.
Read the remainder of the MODPATH simulation data component.
Allocate particle tracking engine component.
Compute range of time steps. Prepare for time step loop                                                                             
Begin TIME_STEP_LOOP
Compute TSMAX                                                                                                                       
Begin TRACKING_INTERVAL_LOOP
