                                  MODFLOW-2005     
      U.S. GEOLOGICAL SURVEY MODULAR FINITE-DIFFERENCE GROUND-WATER FLOW MODEL
                            VERSION 1.12.00 2/3/2017

 LIST FILE: p06-mf.list
                         UNIT    2

 OPENING p06-mf.dis
 FILE TYPE:DIS   UNIT   11   STATUS:OLD    
 FORMAT:FORMATTED              ACCESS:SEQUENTIAL          

 OPENING p06-mf.bas
 FILE TYPE:BAS6   UNIT   13   STATUS:OLD    
 FORMAT:FORMATTED              ACCESS:SEQUENTIAL          

 OPENING p06-mf.lpf
 FILE TYPE:LPF   UNIT   15   STATUS:OLD    
 FORMAT:FORMATTED              ACCESS:SEQUENTIAL          

 OPENING p06-mf.wel
 FILE TYPE:WEL   UNIT   20   STATUS:OLD    
 FORMAT:FORMATTED              ACCESS:SEQUENTIAL          

 OPENING p06-mf.sip
 FILE TYPE:SIP   UNIT   25   STATUS:OLD    
 FORMAT:FORMATTED              ACCESS:SEQUENTIAL          

 OPENING p06-mf.lmt6
 FILE TYPE:LMT6   UNIT   30   STATUS:OLD    
 FORMAT:FORMATTED              ACCESS:SEQUENTIAL          

 BAS -- BASIC PACKAGE, VERSION 7, 5/2/2005 INPUT READ FROM UNIT   13
 
 MODFLOW was compiled using mixed precision
 Precision of REAL variables:           6
 Precision of DOUBLE PRECISION variables:          15

 DISCRETIZATION INPUT DATA READ FROM UNIT   11
 # DIS package for MODFLOW-2005 generated by Flopy 3.9.1
    1 LAYERS        31 ROWS        31 COLUMNS
    2 STRESS PERIOD(S) IN SIMULATION
 MODEL TIME UNIT IS DAYS
 MODEL LENGTH UNIT IS METERS
  Confining bed flag for each layer:
   0

                     DELR =   900.000    

                     DELC =   900.000    

 TOP ELEVATION OF LAYER 1 =   0.00000    

   MODEL LAYER BOTTOM EL. =  -20.0000     FOR LAYER   1


 STRESS PERIOD     LENGTH       TIME STEPS     MULTIPLIER FOR DELT    SS FLAG
 ----------------------------------------------------------------------------
        1         912.5000        365                    1.000         SS
        2         2737.500       1095                    1.000         SS

 STEADY-STATE SIMULATION



 
 # BAS6 package for MODFLOW-2005 generated by Flopy 3.9.1                        
 THE FREE FORMAT OPTION HAS BEEN SELECTED



                     BOUNDARY ARRAY FOR LAYER   1
 READING ON UNIT   13 WITH FORMAT: (31I10)             

 AQUIFER HEAD WILL BE SET TO  -999.99     AT ALL NO-FLOW NODES (IBOUND=0).



                       INITIAL HEAD FOR LAYER   1
 READING ON UNIT   13 WITH FORMAT: (31E15.6)           

 DEFAULT OUTPUT CONTROL
 THE FOLLOWING OUTPUT COMES AT THE END OF EACH STRESS PERIOD:
 TOTAL VOLUMETRIC BUDGET
           HEAD

 LPF -- LAYER-PROPERTY FLOW PACKAGE, VERSION 7, 5/2/2005
         INPUT READ FROM UNIT   15
 # LPF package for MODFLOW-2005 generated by Flopy 3.9.1
 HEAD AT CELLS THAT CONVERT TO DRY= -1.00000E+30
 No named parameters

   LAYER FLAGS:
 LAYER       LAYTYP        LAYAVG         CHANI        LAYVKA        LAYWET
 ---------------------------------------------------------------------------
    1             0             0     1.000E+00             0             0

   INTERPRETATION OF LAYER FLAGS:
                        INTERBLOCK     HORIZONTAL    DATA IN
         LAYER TYPE   TRANSMISSIVITY   ANISOTROPY   ARRAY VKA   WETTABILITY
 LAYER      (LAYTYP)      (LAYAVG)       (CHANI)      (LAYVKA)      (LAYWET)
 ---------------------------------------------------------------------------
    1      CONFINED      HARMONIC     1.000E+00    VERTICAL K  NON-WETTABLE

 WETTING CAPABILITY IS NOT ACTIVE IN ANY LAYER

    HYD. COND. ALONG ROWS =   432.000     FOR LAYER   1

      VERTICAL HYD. COND. =   1.00000     FOR LAYER   1

 WEL -- WELL PACKAGE, VERSION 7, 5/2/2005 INPUT READ FROM UNIT   20
 # WEL package for MODFLOW-2005 generated by Flopy 3.9.1
 No named parameters
 MAXIMUM OF      1 ACTIVE WELLS AT ONE TIME


     0 Well parameters

 SIP -- STRONGLY-IMPLICIT PROCEDURE SOLUTION PACKAGE
                    VERSION 7, 5/2/2005 INPUT READ FROM UNIT   25
 # SIP package for MODFLOW-2005 generated by Flopy 3.9.1
 MAXIMUM OF 200 ITERATIONS ALLOWED FOR CLOSURE
  5 ITERATION PARAMETERS

          SOLUTION BY THE STRONGLY IMPLICIT PROCEDURE
          -------------------------------------------
 MAXIMUM ITERATIONS ALLOWED FOR CLOSURE =      200
                 ACCELERATION PARAMETER =     1.0000    
      HEAD CHANGE CRITERION FOR CLOSURE =    0.10000E-04
      SIP HEAD CHANGE PRINTOUT INTERVAL =      999

     CALCULATE ITERATION PARAMETERS FROM MODEL CALCULATED WSEED


 ***Link-MT3DMS Package v7***
 OPENING LINK-MT3DMS OUTPUT FILE: mt3d_link.ftl                                                                                                                                                                                           
 ON UNIT NUMBER:    54
 FILE TYPE: UNFORMATTED
 HEADER OPTION: EXTENDED
 ***Link-MT3DMS Package v7***

1
                            STRESS PERIOD NO.    1, LENGTH =   912.5000    
                            -----------------------------------------------

                              NUMBER OF TIME STEPS =   365

                               MULTIPLIER FOR DELT =     1.000

                            INITIAL TIME STEP SIZE =   2.500000    

 WELL NO.  LAYER   ROW   COL   STRESS RATE         
 --------------------------------------------------
      1      1     16     16      0.8640E+05

      1 WELL 
 
 SOLVING FOR HEAD 

 AVERAGE SEED = 0.00256753
 MINIMUM SEED = 0.00256753

     5 ITERATION PARAMETERS CALCULATED FROM AVERAGE SEED:

  0.000000E+00 0.774898E+00 0.949329E+00 0.988594E+00 0.997432E+00

    26 ITERATIONS FOR TIME STEP   1 IN STRESS PERIOD    1

 SAVING SATURATED THICKNESS AND FLOW TERMS ON UNIT   54 FOR MT3DMS
 BY THE LINK-MT3DMS PACKAGE V7 AT TIME STEP    1, STRESS PERIOD    1

 
 SOLVING FOR HEAD 
     1 ITERATIONS FOR TIME STEP   2 IN STRESS PERIOD    1

 SAVING SATURATED THICKNESS AND FLOW TERMS ON UNIT   54 FOR MT3DMS
 BY THE LINK-MT3DMS PACKAGE V7 AT TIME STEP    2, STRESS PERIOD    1

 
 SOLVING FOR HEAD 
     1 ITERATIONS FOR TIME STEP   3 IN STRESS PERIOD    1

 SAVING SATURATED THICKNESS AND FLOW TERMS ON UNIT   54 FOR MT3DMS
 BY THE LINK-MT3DMS PACKAGE V7 AT TIME STEP    3, STRESS PERIOD    1

 
 SOLVING FOR HEAD 
     1 ITERATIONS FOR TIME STEP   4 IN STRESS PERIOD    1

 SAVING SATURATED THICKNESS AND FLOW TERMS ON UNIT   54 FOR MT3DMS
 BY THE LINK-MT3DMS PACKAGE V7 AT TIME STEP    4, STRESS PERIOD    1

 
 SOLVING FOR HEAD 
     1 ITERATIONS FOR TIME STEP   5 IN STRESS PERIOD    1

 SAVING SATURATED THICKNESS AND FLOW TERMS ON UNIT   54 FOR MT3DMS
 BY THE LINK-MT3DMS PACKAGE V7 AT TIME STEP    5, STRESS PERIOD    1

 
 SOLVING FOR HEAD 
     1 ITERATIONS FOR TIME STEP   6 IN STRESS PERIOD    1

 SAVING SATURATED THICKNESS AND FLOW TERMS ON UNIT   54 FOR MT3DMS
 BY THE LINK-MT3DMS PACKAGE V7 AT TIME STEP    6, STRESS PERIOD    1

 
 SOLVING FOR HEAD 
     1 ITERATIONS FOR TIME STEP   7 IN STRESS PERIOD    1

 SAVING SATURATED THICKNESS AND FLOW TERMS ON UNIT   54 FOR MT3DMS
 BY THE LINK-MT3DMS PACKAGE V7 AT TIME STEP    7, STRESS PERIOD    1

 
 SOLVING FOR HEAD 
     1 ITERATIONS FOR TIME STEP   8 IN STRESS PERIOD    1

 SAVING SATURATED THICKNESS AND FLOW TERMS ON UNIT   54 FOR MT3DMS
 BY THE LINK-MT3DMS PACKAGE V7 AT TIME STEP    8, STRESS PERIOD    1

 
 SOLVING FOR HEAD 
     1 ITERATIONS FOR TIME STEP   9 IN STRESS PERIOD    1

 SAVING SATURATED THICKNESS AND FLOW TERMS ON UNIT   54 FOR MT3DMS
 BY THE LINK-MT3DMS PACKAGE V7 AT TIME STEP    9, STRESS PERIOD    1

 
 SOLVING FOR HEAD 
     1 ITERATIONS FOR TIME STEP  10 IN STRESS PERIOD    1

 SAVING SATURATED THICKNESS AND FLOW TERMS ON UNIT   54 FOR MT3DMS
 BY THE LINK-MT3DMS PACKAGE V7 AT TIME STEP   10, STRESS PERIOD    1

 
 SOLVING FOR HEAD 
     1 ITERATIONS FOR TIME STEP  11 IN STRESS PERIOD    1

 SAVING SATURATED THICKNESS AND FLOW TERMS ON UNIT   54 FOR MT3DMS
 BY THE LINK-MT3DMS PACKAGE V7 AT TIME STEP   11, STRESS PERIOD    1

 
 SOLVING FOR HEAD 
     1 ITERATIONS FOR TIME STEP  12 IN STRESS PERIOD    1

 SAVING SATURATED THICKNESS AND FLOW TERMS ON UNIT   54 FOR MT3DMS
 BY THE LINK-MT3DMS PACKAGE V7 AT TIME STEP   12, STRESS PERIOD    1

 
 SOLVING FOR HEAD 
     1 ITERATIONS FOR TIME STEP  13 IN STRESS PERIOD    1

 SAVING SATURATED THICKNESS AND FLOW TERMS ON UNIT   54 FOR MT3DMS
 BY THE LINK-MT3DMS PACKAGE V7 AT TIME STEP   13, STRESS PERIOD    1

 
 SOLVING FOR HEAD 
     1 ITERATIONS FOR TIME STEP  14 IN STRESS PERIOD    1

 SAVING SATURATED THICKNESS AND FLOW TERMS ON UNIT   54 FOR MT3DMS
 BY THE LINK-MT3DMS PACKAGE V7 AT TIME STEP   14, STRESS PERIOD    1

 
 SOLVING FOR HEAD 
     1 ITERATIONS FOR TIME STEP  15 IN STRESS PERIOD    1

 SAVING SATURATED THICKNESS AND FLOW TERMS ON UNIT   54 FOR MT3DMS
 BY THE LINK-MT3DMS PACKAGE V7 AT TIME STEP   15, STRESS PERIOD    1

 
 SOLVING FOR HEAD 
     1 ITERATIONS FOR TIME STEP  16 IN STRESS PERIOD    1

 SAVING SATURATED THICKNESS AND FLOW TERMS ON UNIT   54 FOR MT3DMS
 BY THE LINK-MT3DMS PACKAGE V7 AT TIME STEP   16, STRESS PERIOD    1

 
 SOLVING FOR HEAD 
     1 ITERATIONS FOR TIME STEP  17 IN STRESS PERIOD    1

 SAVING SATURATED THICKNESS AND FLOW TERMS ON UNIT   54 FOR MT3DMS
 BY THE LINK-MT3DMS PACKAGE V7 AT TIME STEP   17, STRESS PERIOD    1

 
 SOLVING FOR HEAD 
     1 ITERATIONS FOR TIME STEP  18 IN STRESS PERIOD    1

 SAVING SATURATED THICKNESS AND FLOW TERMS ON UNIT   54 FOR MT3DMS
 BY THE LINK-MT3DMS PACKAGE V7 AT TIME STEP   18, STRESS PERIOD    1

 
 SOLVING FOR HEAD 
     1 ITERATIONS FOR TIME STEP  19 IN STRESS PERIOD    1

 SAVING SATURATED THICKNESS AND FLOW TERMS ON UNIT   54 FOR MT3DMS
 BY THE LINK-MT3DMS PACKAGE V7 AT TIME STEP   19, STRESS PERIOD    1

 
 SOLVING FOR HEAD 
     1 ITERATIONS FOR TIME STEP  20 IN STRESS PERIOD    1

 SAVING SATURATED THICKNESS AND FLOW TERMS ON UNIT   54 FOR MT3DMS
 BY THE LINK-MT3DMS PACKAGE V7 AT TIME STEP   20, STRESS PERIOD    1

 
 SOLVING FOR HEAD 
     1 ITERATIONS FOR TIME STEP  21 IN STRESS PERIOD    1

 SAVING SATURATED THICKNESS AND FLOW TERMS ON UNIT   54 FOR MT3DMS
 BY THE LINK-MT3DMS PACKAGE V7 AT TIME STEP   21, STRESS PERIOD    1

 
 SOLVING FOR HEAD 
     1 ITERATIONS FOR TIME STEP  22 IN STRESS PERIOD    1

 SAVING SATURATED THICKNESS AND FLOW TERMS ON UNIT   54 FOR MT3DMS
 BY THE LINK-MT3DMS PACKAGE V7 AT TIME STEP   22, STRESS PERIOD    1

 
 SOLVING FOR HEAD 
     1 ITERATIONS FOR TIME STEP  23 IN STRESS PERIOD    1

 SAVING SATURATED THICKNESS AND FLOW TERMS ON UNIT   54 FOR MT3DMS
 BY THE LINK-MT3DMS PACKAGE V7 AT TIME STEP   23, STRESS PERIOD    1

 
 SOLVING FOR HEAD 
     1 ITERATIONS FOR TIME STEP  24 IN STRESS PERIOD    1

 SAVING SATURATED THICKNESS AND FLOW TERMS ON UNIT   54 FOR MT3DMS
 BY THE LINK-MT3DMS PACKAGE V7 AT TIME STEP   24, STRESS PERIOD    1

 
 SOLVING FOR HEAD 
     1 ITERATIONS FOR TIME STEP  25 IN STRESS PERIOD    1

 SAVING SATURATED THICKNESS AND FLOW TERMS ON UNIT   54 FOR MT3DMS
 BY THE LINK-MT3DMS PACKAGE V7 AT TIME STEP   25, STRESS PERIOD    1

 
 SOLVING FOR HEAD 
     1 ITERATIONS FOR TIME STEP  26 IN STRESS PERIOD    1

 SAVING SATURATED THICKNESS AND FLOW TERMS ON UNIT   54 FOR MT3DMS
 BY THE LINK-MT3DMS PACKAGE V7 AT TIME STEP   26, STRESS PERIOD    1

 
 SOLVING FOR HEAD 
     1 ITERATIONS FOR TIME STEP  27 IN STRESS PERIOD    1

 SAVING SATURATED THICKNESS AND FLOW TERMS ON UNIT   54 FOR MT3DMS
 BY THE LINK-MT3DMS PACKAGE V7 AT TIME STEP   27, STRESS PERIOD    1

 
 SOLVING FOR HEAD 
     1 ITERATIONS FOR TIME STEP  28 IN STRESS PERIOD    1

 SAVING SATURATED THICKNESS AND FLOW TERMS ON UNIT   54 FOR MT3DMS
 BY THE LINK-MT3DMS PACKAGE V7 AT TIME STEP   28, STRESS PERIOD    1

 
 SOLVING FOR HEAD 
     1 ITERATIONS FOR TIME STEP  29 IN STRESS PERIOD    1

 SAVING SATURATED THICKNESS AND FLOW TERMS ON UNIT   54 FOR MT3DMS
 BY THE LINK-MT3DMS PACKAGE V7 AT TIME STEP   29, STRESS PERIOD    1

 
 SOLVING FOR HEAD 
     1 ITERATIONS FOR TIME STEP  30 IN STRESS PERIOD    1

 SAVING SATURATED THICKNESS AND FLOW TERMS ON UNIT   54 FOR MT3DMS
 BY THE LINK-MT3DMS PACKAGE V7 AT TIME STEP   30, STRESS PERIOD    1

 
 SOLVING FOR HEAD 
     1 ITERATIONS FOR TIME STEP  31 IN STRESS PERIOD    1

 SAVING SATURATED THICKNESS AND FLOW TERMS ON UNIT   54 FOR MT3DMS
 BY THE LINK-MT3DMS PACKAGE V7 AT TIME STEP   31, STRESS PERIOD    1

 
 SOLVING FOR HEAD 
     1 ITERATIONS FOR TIME STEP  32 IN STRESS PERIOD    1

 SAVING SATURATED THICKNESS AND FLOW TERMS ON UNIT   54 FOR MT3DMS
 BY THE LINK-MT3DMS PACKAGE V7 AT TIME STEP   32, STRESS PERIOD    1

 
 SOLVING FOR HEAD 
     1 ITERATIONS FOR TIME STEP  33 IN STRESS PERIOD    1

 SAVING SATURATED THICKNESS AND FLOW TERMS ON UNIT   54 FOR MT3DMS
 BY THE LINK-MT3DMS PACKAGE V7 AT TIME STEP   33, STRESS PERIOD    1

 
 SOLVING FOR HEAD 
     1 ITERATIONS FOR TIME STEP  34 IN STRESS PERIOD    1

 SAVING SATURATED THICKNESS AND FLOW TERMS ON UNIT   54 FOR MT3DMS
 BY THE LINK-MT3DMS PACKAGE V7 AT TIME STEP   34, STRESS PERIOD    1

 
 SOLVING FOR HEAD 
     1 ITERATIONS FOR TIME STEP  35 IN STRESS PERIOD    1

 SAVING SATURATED THICKNESS AND FLOW TERMS ON UNIT   54 FOR MT3DMS
 BY THE LINK-MT3DMS PACKAGE V7 AT TIME STEP   35, STRESS PERIOD    1

 
 SOLVING FOR HEAD 
     1 ITERATIONS FOR TIME STEP  36 IN STRESS PERIOD    1

 SAVING SATURATED THICKNESS AND FLOW TERMS ON UNIT   54 FOR MT3DMS
 BY THE LINK-MT3DMS PACKAGE V7 AT TIME STEP   36, STRESS PERIOD    1

 
 SOLVING FOR HEAD 
     1 ITERATIONS FOR TIME STEP  37 IN STRESS PERIOD    1

 SAVING SATURATED THICKNESS AND FLOW TERMS ON UNIT   54 FOR MT3DMS
 BY THE LINK-MT3DMS PACKAGE V7 AT TIME STEP   37, STRESS PERIOD    1

 
 SOLVING FOR HEAD 
     1 ITERATIONS FOR TIME STEP  38 IN STRESS PERIOD    1

 SAVING SATURATED THICKNESS AND FLOW TERMS ON UNIT   54 FOR MT3DMS
 BY THE LINK-MT3DMS PACKAGE V7 AT TIME STEP   38, STRESS PERIOD    1

 
 SOLVING FOR HEAD 
     1 ITERATIONS FOR TIME STEP  39 IN STRESS PERIOD    1

 SAVING SATURATED THICKNESS AND FLOW TERMS ON UNIT   54 FOR MT3DMS
 BY THE LINK-MT3DMS PACKAGE V7 AT TIME STEP   39, STRESS PERIOD    1

 
 SOLVING FOR HEAD 
     1 ITERATIONS FOR TIME STEP  40 IN STRESS PERIOD    1

 SAVING SATURATED THICKNESS AND FLOW TERMS ON UNIT   54 FOR MT3DMS
 BY THE LINK-MT3DMS PACKAGE V7 AT TIME STEP   40, STRESS PERIOD    1

 
 SOLVING FOR HEAD 
     1 ITERATIONS FOR TIME STEP  41 IN STRESS PERIOD    1

 SAVING SATURATED THICKNESS AND FLOW TERMS ON UNIT   54 FOR MT3DMS
 BY THE LINK-MT3DMS PACKAGE V7 AT TIME STEP   41, STRESS PERIOD    1

 
 SOLVING FOR HEAD 
     1 ITERATIONS FOR TIME STEP  42 IN STRESS PERIOD    1

 SAVING SATURATED THICKNESS AND FLOW TERMS ON UNIT   54 FOR MT3DMS
 BY THE LINK-MT3DMS PACKAGE V7 AT TIME STEP   42, STRESS PERIOD    1

 
 SOLVING FOR HEAD 
     1 ITERATIONS FOR TIME STEP  43 IN STRESS PERIOD    1

 SAVING SATURATED THICKNESS AND FLOW TERMS ON UNIT   54 FOR MT3DMS
 BY THE LINK-MT3DMS PACKAGE V7 AT TIME STEP   43, STRESS PERIOD    1

 
 SOLVING FOR HEAD 
     1 ITERATIONS FOR TIME STEP  44 IN STRESS PERIOD    1

 SAVING SATURATED THICKNESS AND FLOW TERMS ON UNIT   54 FOR MT3DMS
 BY THE LINK-MT3DMS PACKAGE V7 AT TIME STEP   44, STRESS PERIOD    1

 
 SOLVING FOR HEAD 
     1 ITERATIONS FOR TIME STEP  45 IN STRESS PERIOD    1

 SAVING SATURATED THICKNESS AND FLOW TERMS ON UNIT   54 FOR MT3DMS
 BY THE LINK-MT3DMS PACKAGE V7 AT TIME STEP   45, STRESS PERIOD    1

 
 SOLVING FOR HEAD 
     1 ITERATIONS FOR TIME STEP  46 IN STRESS PERIOD    1

 SAVING SATURATED THICKNESS AND FLOW TERMS ON UNIT   54 FOR MT3DMS
 BY THE LINK-MT3DMS PACKAGE V7 AT TIME STEP   46, STRESS PERIOD    1

 
 SOLVING FOR HEAD 
     1 ITERATIONS FOR TIME STEP  47 IN STRESS PERIOD    1

 SAVING SATURATED THICKNESS AND FLOW TERMS ON UNIT   54 FOR MT3DMS
 BY THE LINK-MT3DMS PACKAGE V7 AT TIME STEP   47, STRESS PERIOD    1

 
 SOLVING FOR HEAD 
     1 ITERATIONS FOR TIME STEP  48 IN STRESS PERIOD    1

 SAVING SATURATED THICKNESS AND FLOW TERMS ON UNIT   54 FOR MT3DMS
 BY THE LINK-MT3DMS PACKAGE V7 AT TIME STEP   48, STRESS PERIOD    1

 
 SOLVING FOR HEAD 
     1 ITERATIONS FOR TIME STEP  49 IN STRESS PERIOD    1

 SAVING SATURATED THICKNESS AND FLOW TERMS ON UNIT   54 FOR MT3DMS
 BY THE LINK-MT3DMS PACKAGE V7 AT TIME STEP   49, STRESS PERIOD    1

 
 SOLVING FOR HEAD 
     1 ITERATIONS FOR TIME STEP  50 IN STRESS PERIOD    1

 SAVING SATURATED THICKNESS AND FLOW TERMS ON UNIT   54 FOR MT3DMS
 BY THE LINK-MT3DMS PACKAGE V7 AT TIME STEP   50, STRESS PERIOD    1

 
 SOLVING FOR HEAD 
     1 ITERATIONS FOR TIME STEP  51 IN STRESS PERIOD    1

 SAVING SATURATED THICKNESS AND FLOW TERMS ON UNIT   54 FOR MT3DMS
 BY THE LINK-MT3DMS PACKAGE V7 AT TIME STEP   51, STRESS PERIOD    1

 
 SOLVING FOR HEAD 
     1 ITERATIONS FOR TIME STEP  52 IN STRESS PERIOD    1

 SAVING SATURATED THICKNESS AND FLOW TERMS ON UNIT   54 FOR MT3DMS
 BY THE LINK-MT3DMS PACKAGE V7 AT TIME STEP   52, STRESS PERIOD    1

 
 SOLVING FOR HEAD 
     1 ITERATIONS FOR TIME STEP  53 IN STRESS PERIOD    1

 SAVING SATURATED THICKNESS AND FLOW TERMS ON UNIT   54 FOR MT3DMS
 BY THE LINK-MT3DMS PACKAGE V7 AT TIME STEP   53, STRESS PERIOD    1

 
 SOLVING FOR HEAD 
     1 ITERATIONS FOR TIME STEP  54 IN STRESS PERIOD    1

 SAVING SATURATED THICKNESS AND FLOW TERMS ON UNIT   54 FOR MT3DMS
 BY THE LINK-MT3DMS PACKAGE V7 AT TIME STEP   54, STRESS PERIOD    1

 
 SOLVING FOR HEAD 
     1 ITERATIONS FOR TIME STEP  55 IN STRESS PERIOD    1

 SAVING SATURATED THICKNESS AND FLOW TERMS ON UNIT   54 FOR MT3DMS
 BY THE LINK-MT3DMS PACKAGE V7 AT TIME STEP   55, STRESS PERIOD    1

 
 SOLVING FOR HEAD 
     1 ITERATIONS FOR TIME STEP  56 IN STRESS PERIOD    1

 SAVING SATURATED THICKNESS AND FLOW TERMS ON UNIT   54 FOR MT3DMS
 BY THE LINK-MT3DMS PACKAGE V7 AT TIME STEP   56, STRESS PERIOD    1

 
 SOLVING FOR HEAD 
     1 ITERATIONS FOR TIME STEP  57 IN STRESS PERIOD    1

 SAVING SATURATED THICKNESS AND FLOW TERMS ON UNIT   54 FOR MT3DMS
 BY THE LINK-MT3DMS PACKAGE V7 AT TIME STEP   57, STRESS PERIOD    1

 
 SOLVING FOR HEAD 
     1 ITERATIONS FOR TIME STEP  58 IN STRESS PERIOD    1

 SAVING SATURATED THICKNESS AND FLOW TERMS ON UNIT   54 FOR MT3DMS
 BY THE LINK-MT3DMS PACKAGE V7 AT TIME STEP   58, STRESS PERIOD    1

 
 SOLVING FOR HEAD 
     1 ITERATIONS FOR TIME STEP  59 IN STRESS PERIOD    1

 SAVING SATURATED THICKNESS AND FLOW TERMS ON UNIT   54 FOR MT3DMS
 BY THE LINK-MT3DMS PACKAGE V7 AT TIME STEP   59, STRESS PERIOD    1

 
 SOLVING FOR HEAD 
     1 ITERATIONS FOR TIME STEP  60 IN STRESS PERIOD    1

 SAVING SATURATED THICKNESS AND FLOW TERMS ON UNIT   54 FOR MT3DMS
 BY THE LINK-MT3DMS PACKAGE V7 AT TIME STEP   60, STRESS PERIOD    1

 
 SOLVING FOR HEAD 
     1 ITERATIONS FOR TIME STEP  61 IN STRESS PERIOD    1

 SAVING SATURATED THICKNESS AND FLOW TERMS ON UNIT   54 FOR MT3DMS
 BY THE LINK-MT3DMS PACKAGE V7 AT TIME STEP   61, STRESS PERIOD    1

 
 SOLVING FOR HEAD 
     1 ITERATIONS FOR TIME STEP  62 IN STRESS PERIOD    1

 SAVING SATURATED THICKNESS AND FLOW TERMS ON UNIT   54 FOR MT3DMS
 BY THE LINK-MT3DMS PACKAGE V7 AT TIME STEP   62, STRESS PERIOD    1

 
 SOLVING FOR HEAD 
     1 ITERATIONS FOR TIME STEP  63 IN STRESS PERIOD    1

 SAVING SATURATED THICKNESS AND FLOW TERMS ON UNIT   54 FOR MT3DMS
 BY THE LINK-MT3DMS PACKAGE V7 AT TIME STEP   63, STRESS PERIOD    1

 
 SOLVING FOR HEAD 
     1 ITERATIONS FOR TIME STEP  64 IN STRESS PERIOD    1

 SAVING SATURATED THICKNESS AND FLOW TERMS ON UNIT   54 FOR MT3DMS
 BY THE LINK-MT3DMS PACKAGE V7 AT TIME STEP   64, STRESS PERIOD    1

 
 SOLVING FOR HEAD 
     1 ITERATIONS FOR TIME STEP  65 IN STRESS PERIOD    1

 SAVING SATURATED THICKNESS AND FLOW TERMS ON UNIT   54 FOR MT3DMS
 BY THE LINK-MT3DMS PACKAGE V7 AT TIME STEP   65, STRESS PERIOD    1

 
 SOLVING FOR HEAD 
     1 ITERATIONS FOR TIME STEP  66 IN STRESS PERIOD    1

 SAVING SATURATED THICKNESS AND FLOW TERMS ON UNIT   54 FOR MT3DMS
 BY THE LINK-MT3DMS PACKAGE V7 AT TIME STEP   66, STRESS PERIOD    1

 
 SOLVING FOR HEAD 
     1 ITERATIONS FOR TIME STEP  67 IN STRESS PERIOD    1

 SAVING SATURATED THICKNESS AND FLOW TERMS ON UNIT   54 FOR MT3DMS
 BY THE LINK-MT3DMS PACKAGE V7 AT TIME STEP   67, STRESS PERIOD    1

 
 SOLVING FOR HEAD 
     1 ITERATIONS FOR TIME STEP  68 IN STRESS PERIOD    1

 SAVING SATURATED THICKNESS AND FLOW TERMS ON UNIT   54 FOR MT3DMS
 BY THE LINK-MT3DMS PACKAGE V7 AT TIME STEP   68, STRESS PERIOD    1

 
 SOLVING FOR HEAD 
     1 ITERATIONS FOR TIME STEP  69 IN STRESS PERIOD    1

 SAVING SATURATED THICKNESS AND FLOW TERMS ON UNIT   54 FOR MT3DMS
 BY THE LINK-MT3DMS PACKAGE V7 AT TIME STEP   69, STRESS PERIOD    1

 
 SOLVING FOR HEAD 
     1 ITERATIONS FOR TIME STEP  70 IN STRESS PERIOD    1

 SAVING SATURATED THICKNESS AND FLOW TERMS ON UNIT   54 FOR MT3DMS
 BY THE LINK-MT3DMS PACKAGE V7 AT TIME STEP   70, STRESS PERIOD    1

 
 SOLVING FOR HEAD 
     1 ITERATIONS FOR TIME STEP  71 IN STRESS PERIOD    1

 SAVING SATURATED THICKNESS AND FLOW TERMS ON UNIT   54 FOR MT3DMS
 BY THE LINK-MT3DMS PACKAGE V7 AT TIME STEP   71, STRESS PERIOD    1

 
 SOLVING FOR HEAD 
     1 ITERATIONS FOR TIME STEP  72 IN STRESS PERIOD    1

 SAVING SATURATED THICKNESS AND FLOW TERMS ON UNIT   54 FOR MT3DMS
 BY THE LINK-MT3DMS PACKAGE V7 AT TIME STEP   72, STRESS PERIOD    1

 
 SOLVING FOR HEAD 
     1 ITERATIONS FOR TIME STEP  73 IN STRESS PERIOD    1

 SAVING SATURATED THICKNESS AND FLOW TERMS ON UNIT   54 FOR MT3DMS
 BY THE LINK-MT3DMS PACKAGE V7 AT TIME STEP   73, STRESS PERIOD    1

 
 SOLVING FOR HEAD 
     1 ITERATIONS FOR TIME STEP  74 IN STRESS PERIOD    1

 SAVING SATURATED THICKNESS AND FLOW TERMS ON UNIT   54 FOR MT3DMS
 BY THE LINK-MT3DMS PACKAGE V7 AT TIME STEP   74, STRESS PERIOD    1

 
 SOLVING FOR HEAD 
     1 ITERATIONS FOR TIME STEP  75 IN STRESS PERIOD    1

 SAVING SATURATED THICKNESS AND FLOW TERMS ON UNIT   54 FOR MT3DMS
 BY THE LINK-MT3DMS PACKAGE V7 AT TIME STEP   75, STRESS PERIOD    1

 
 SOLVING FOR HEAD 
     1 ITERATIONS FOR TIME STEP  76 IN STRESS PERIOD    1

 SAVING SATURATED THICKNESS AND FLOW TERMS ON UNIT   54 FOR MT3DMS
 BY THE LINK-MT3DMS PACKAGE V7 AT TIME STEP   76, STRESS PERIOD    1

 
 SOLVING FOR HEAD 
     1 ITERATIONS FOR TIME STEP  77 IN STRESS PERIOD    1

 SAVING SATURATED THICKNESS AND FLOW TERMS ON UNIT   54 FOR MT3DMS
 BY THE LINK-MT3DMS PACKAGE V7 AT TIME STEP   77, STRESS PERIOD    1

 
 SOLVING FOR HEAD 
     1 ITERATIONS FOR TIME STEP  78 IN STRESS PERIOD    1

 SAVING SATURATED THICKNESS AND FLOW TERMS ON UNIT   54 FOR MT3DMS
 BY THE LINK-MT3DMS PACKAGE V7 AT TIME STEP   78, STRESS PERIOD    1

 
 SOLVING FOR HEAD 
     1 ITERATIONS FOR TIME STEP  79 IN STRESS PERIOD    1

 SAVING SATURATED THICKNESS AND FLOW TERMS ON UNIT   54 FOR MT3DMS
 BY THE LINK-MT3DMS PACKAGE V7 AT TIME STEP   79, STRESS PERIOD    1

 
 SOLVING FOR HEAD 
     1 ITERATIONS FOR TIME STEP  80 IN STRESS PERIOD    1

 SAVING SATURATED THICKNESS AND FLOW TERMS ON UNIT   54 FOR MT3DMS
 BY THE LINK-MT3DMS PACKAGE V7 AT TIME STEP   80, STRESS PERIOD    1

 
 SOLVING FOR HEAD 
     1 ITERATIONS FOR TIME STEP  81 IN STRESS PERIOD    1

 SAVING SATURATED THICKNESS AND FLOW TERMS ON UNIT   54 FOR MT3DMS
 BY THE LINK-MT3DMS PACKAGE V7 AT TIME STEP   81, STRESS PERIOD    1

 
 SOLVING FOR HEAD 
     1 ITERATIONS FOR TIME STEP  82 IN STRESS PERIOD    1

 SAVING SATURATED THICKNESS AND FLOW TERMS ON UNIT   54 FOR MT3DMS
 BY THE LINK-MT3DMS PACKAGE V7 AT TIME STEP   82, STRESS PERIOD    1

 
 SOLVING FOR HEAD 
     1 ITERATIONS FOR TIME STEP  83 IN STRESS PERIOD    1

 SAVING SATURATED THICKNESS AND FLOW TERMS ON UNIT   54 FOR MT3DMS
 BY THE LINK-MT3DMS PACKAGE V7 AT TIME STEP   83, STRESS PERIOD    1

 
 SOLVING FOR HEAD 
     1 ITERATIONS FOR TIME STEP  84 IN STRESS PERIOD    1

 SAVING SATURATED THICKNESS AND FLOW TERMS ON UNIT   54 FOR MT3DMS
 BY THE LINK-MT3DMS PACKAGE V7 AT TIME STEP   84, STRESS PERIOD    1

 
 SOLVING FOR HEAD 
     1 ITERATIONS FOR TIME STEP  85 IN STRESS PERIOD    1

 SAVING SATURATED THICKNESS AND FLOW TERMS ON UNIT   54 FOR MT3DMS
 BY THE LINK-MT3DMS PACKAGE V7 AT TIME STEP   85, STRESS PERIOD    1

 
 SOLVING FOR HEAD 
     1 ITERATIONS FOR TIME STEP  86 IN STRESS PERIOD    1

 SAVING SATURATED THICKNESS AND FLOW TERMS ON UNIT   54 FOR MT3DMS
 BY THE LINK-MT3DMS PACKAGE V7 AT TIME STEP   86, STRESS PERIOD    1

 
 SOLVING FOR HEAD 
     1 ITERATIONS FOR TIME STEP  87 IN STRESS PERIOD    1

 SAVING SATURATED THICKNESS AND FLOW TERMS ON UNIT   54 FOR MT3DMS
 BY THE LINK-MT3DMS PACKAGE V7 AT TIME STEP   87, STRESS PERIOD    1

 
 SOLVING FOR HEAD 
     1 ITERATIONS FOR TIME STEP  88 IN STRESS PERIOD    1

 SAVING SATURATED THICKNESS AND FLOW TERMS ON UNIT   54 FOR MT3DMS
 BY THE LINK-MT3DMS PACKAGE V7 AT TIME STEP   88, STRESS PERIOD    1

 
 SOLVING FOR HEAD 
     1 ITERATIONS FOR TIME STEP  89 IN STRESS PERIOD    1

 SAVING SATURATED THICKNESS AND FLOW TERMS ON UNIT   54 FOR MT3DMS
 BY THE LINK-MT3DMS PACKAGE V7 AT TIME STEP   89, STRESS PERIOD    1

 
 SOLVING FOR HEAD 
     1 ITERATIONS FOR TIME STEP  90 IN STRESS PERIOD    1

 SAVING SATURATED THICKNESS AND FLOW TERMS ON UNIT   54 FOR MT3DMS
 BY THE LINK-MT3DMS PACKAGE V7 AT TIME STEP   90, STRESS PERIOD    1

 
 SOLVING FOR HEAD 
     1 ITERATIONS FOR TIME STEP  91 IN STRESS PERIOD    1

 SAVING SATURATED THICKNESS AND FLOW TERMS ON UNIT   54 FOR MT3DMS
 BY THE LINK-MT3DMS PACKAGE V7 AT TIME STEP   91, STRESS PERIOD    1

 
 SOLVING FOR HEAD 
     1 ITERATIONS FOR TIME STEP  92 IN STRESS PERIOD    1

 SAVING SATURATED THICKNESS AND FLOW TERMS ON UNIT   54 FOR MT3DMS
 BY THE LINK-MT3DMS PACKAGE V7 AT TIME STEP   92, STRESS PERIOD    1

 
 SOLVING FOR HEAD 
     1 ITERATIONS FOR TIME STEP  93 IN STRESS PERIOD    1

 SAVING SATURATED THICKNESS AND FLOW TERMS ON UNIT   54 FOR MT3DMS
 BY THE LINK-MT3DMS PACKAGE V7 AT TIME STEP   93, STRESS PERIOD    1

 
 SOLVING FOR HEAD 
     1 ITERATIONS FOR TIME STEP  94 IN STRESS PERIOD    1

 SAVING SATURATED THICKNESS AND FLOW TERMS ON UNIT   54 FOR MT3DMS
 BY THE LINK-MT3DMS PACKAGE V7 AT TIME STEP   94, STRESS PERIOD    1

 
 SOLVING FOR HEAD 
     1 ITERATIONS FOR TIME STEP  95 IN STRESS PERIOD    1

 SAVING SATURATED THICKNESS AND FLOW TERMS ON UNIT   54 FOR MT3DMS
 BY THE LINK-MT3DMS PACKAGE V7 AT TIME STEP   95, STRESS PERIOD    1

 
 SOLVING FOR HEAD 
     1 ITERATIONS FOR TIME STEP  96 IN STRESS PERIOD    1

 SAVING SATURATED THICKNESS AND FLOW TERMS ON UNIT   54 FOR MT3DMS
 BY THE LINK-MT3DMS PACKAGE V7 AT TIME STEP   96, STRESS PERIOD    1

 
 SOLVING FOR HEAD 
     1 ITERATIONS FOR TIME STEP  97 IN STRESS PERIOD    1

 SAVING SATURATED THICKNESS AND FLOW TERMS ON UNIT   54 FOR MT3DMS
 BY THE LINK-MT3DMS PACKAGE V7 AT TIME STEP   97, STRESS PERIOD    1

 
 SOLVING FOR HEAD 
     1 ITERATIONS FOR TIME STEP  98 IN STRESS PERIOD    1

 SAVING SATURATED THICKNESS AND FLOW TERMS ON UNIT   54 FOR MT3DMS
 BY THE LINK-MT3DMS PACKAGE V7 AT TIME STEP   98, STRESS PERIOD    1

 
 SOLVING FOR HEAD 
     1 ITERATIONS FOR TIME STEP  99 IN STRESS PERIOD    1

 SAVING SATURATED THICKNESS AND FLOW TERMS ON UNIT   54 FOR MT3DMS
 BY THE LINK-MT3DMS PACKAGE V7 AT TIME STEP   99, STRESS PERIOD    1

 
 SOLVING FOR HEAD 
     1 ITERATIONS FOR TIME STEP 100 IN STRESS PERIOD    1

 SAVING SATURATED THICKNESS AND FLOW TERMS ON UNIT   54 FOR MT3DMS
 BY THE LINK-MT3DMS PACKAGE V7 AT TIME STEP  100, STRESS PERIOD    1

 
 SOLVING FOR HEAD 
     1 ITERATIONS FOR TIME STEP 101 IN STRESS PERIOD    1

 SAVING SATURATED THICKNESS AND FLOW TERMS ON UNIT   54 FOR MT3DMS
 BY THE LINK-MT3DMS PACKAGE V7 AT TIME STEP  101, STRESS PERIOD    1

 
 SOLVING FOR HEAD 
     1 ITERATIONS FOR TIME STEP 102 IN STRESS PERIOD    1

 SAVING SATURATED THICKNESS AND FLOW TERMS ON UNIT   54 FOR MT3DMS
 BY THE LINK-MT3DMS PACKAGE V7 AT TIME STEP  102, STRESS PERIOD    1

 
 SOLVING FOR HEAD 
     1 ITERATIONS FOR TIME STEP 103 IN STRESS PERIOD    1

 SAVING SATURATED THICKNESS AND FLOW TERMS ON UNIT   54 FOR MT3DMS
 BY THE LINK-MT3DMS PACKAGE V7 AT TIME STEP  103, STRESS PERIOD    1

 
 SOLVING FOR HEAD 
     1 ITERATIONS FOR TIME STEP 104 IN STRESS PERIOD    1

 SAVING SATURATED THICKNESS AND FLOW TERMS ON UNIT   54 FOR MT3DMS
 BY THE LINK-MT3DMS PACKAGE V7 AT TIME STEP  104, STRESS PERIOD    1

 
 SOLVING FOR HEAD 
     1 ITERATIONS FOR TIME STEP 105 IN STRESS PERIOD    1

 SAVING SATURATED THICKNESS AND FLOW TERMS ON UNIT   54 FOR MT3DMS
 BY THE LINK-MT3DMS PACKAGE V7 AT TIME STEP  105, STRESS PERIOD    1

 
 SOLVING FOR HEAD 
     1 ITERATIONS FOR TIME STEP 106 IN STRESS PERIOD    1

 SAVING SATURATED THICKNESS AND FLOW TERMS ON UNIT   54 FOR MT3DMS
 BY THE LINK-MT3DMS PACKAGE V7 AT TIME STEP  106, STRESS PERIOD    1

 
 SOLVING FOR HEAD 
     1 ITERATIONS FOR TIME STEP 107 IN STRESS PERIOD    1

 SAVING SATURATED THICKNESS AND FLOW TERMS ON UNIT   54 FOR MT3DMS
 BY THE LINK-MT3DMS PACKAGE V7 AT TIME STEP  107, STRESS PERIOD    1

 
 SOLVING FOR HEAD 
     1 ITERATIONS FOR TIME STEP 108 IN STRESS PERIOD    1

 SAVING SATURATED THICKNESS AND FLOW TERMS ON UNIT   54 FOR MT3DMS
 BY THE LINK-MT3DMS PACKAGE V7 AT TIME STEP  108, STRESS PERIOD    1

 
 SOLVING FOR HEAD 
     1 ITERATIONS FOR TIME STEP 109 IN STRESS PERIOD    1

 SAVING SATURATED THICKNESS AND FLOW TERMS ON UNIT   54 FOR MT3DMS
 BY THE LINK-MT3DMS PACKAGE V7 AT TIME STEP  109, STRESS PERIOD    1

 
 SOLVING FOR HEAD 
     1 ITERATIONS FOR TIME STEP 110 IN STRESS PERIOD    1

 SAVING SATURATED THICKNESS AND FLOW TERMS ON UNIT   54 FOR MT3DMS
 BY THE LINK-MT3DMS PACKAGE V7 AT TIME STEP  110, STRESS PERIOD    1

 
 SOLVING FOR HEAD 
     1 ITERATIONS FOR TIME STEP 111 IN STRESS PERIOD    1

 SAVING SATURATED THICKNESS AND FLOW TERMS ON UNIT   54 FOR MT3DMS
 BY THE LINK-MT3DMS PACKAGE V7 AT TIME STEP  111, STRESS PERIOD    1

 
 SOLVING FOR HEAD 
     1 ITERATIONS FOR TIME STEP 112 IN STRESS PERIOD    1

 SAVING SATURATED THICKNESS AND FLOW TERMS ON UNIT   54 FOR MT3DMS
 BY THE LINK-MT3DMS PACKAGE V7 AT TIME STEP  112, STRESS PERIOD    1

 
 SOLVING FOR HEAD 
     1 ITERATIONS FOR TIME STEP 113 IN STRESS PERIOD    1

 SAVING SATURATED THICKNESS AND FLOW TERMS ON UNIT   54 FOR MT3DMS
 BY THE LINK-MT3DMS PACKAGE V7 AT TIME STEP  113, STRESS PERIOD    1

 
 SOLVING FOR HEAD 
     1 ITERATIONS FOR TIME STEP 114 IN STRESS PERIOD    1

 SAVING SATURATED THICKNESS AND FLOW TERMS ON UNIT   54 FOR MT3DMS
 BY THE LINK-MT3DMS PACKAGE V7 AT TIME STEP  114, STRESS PERIOD    1

 
 SOLVING FOR HEAD 
     1 ITERATIONS FOR TIME STEP 115 IN STRESS PERIOD    1

 SAVING SATURATED THICKNESS AND FLOW TERMS ON UNIT   54 FOR MT3DMS
 BY THE LINK-MT3DMS PACKAGE V7 AT TIME STEP  115, STRESS PERIOD    1

 
 SOLVING FOR HEAD 
     1 ITERATIONS FOR TIME STEP 116 IN STRESS PERIOD    1

 SAVING SATURATED THICKNESS AND FLOW TERMS ON UNIT   54 FOR MT3DMS
 BY THE LINK-MT3DMS PACKAGE V7 AT TIME STEP  116, STRESS PERIOD    1

 
 SOLVING FOR HEAD 
     1 ITERATIONS FOR TIME STEP 117 IN STRESS PERIOD    1

 SAVING SATURATED THICKNESS AND FLOW TERMS ON UNIT   54 FOR MT3DMS
 BY THE LINK-MT3DMS PACKAGE V7 AT TIME STEP  117, STRESS PERIOD    1

 
 SOLVING FOR HEAD 
     1 ITERATIONS FOR TIME STEP 118 IN STRESS PERIOD    1

 SAVING SATURATED THICKNESS AND FLOW TERMS ON UNIT   54 FOR MT3DMS
 BY THE LINK-MT3DMS PACKAGE V7 AT TIME STEP  118, STRESS PERIOD    1

 
 SOLVING FOR HEAD 
     1 ITERATIONS FOR TIME STEP 119 IN STRESS PERIOD    1

 SAVING SATURATED THICKNESS AND FLOW TERMS ON UNIT   54 FOR MT3DMS
 BY THE LINK-MT3DMS PACKAGE V7 AT TIME STEP  119, STRESS PERIOD    1

 
 SOLVING FOR HEAD 
     1 ITERATIONS FOR TIME STEP 120 IN STRESS PERIOD    1

 SAVING SATURATED THICKNESS AND FLOW TERMS ON UNIT   54 FOR MT3DMS
 BY THE LINK-MT3DMS PACKAGE V7 AT TIME STEP  120, STRESS PERIOD    1

 
 SOLVING FOR HEAD 
     1 ITERATIONS FOR TIME STEP 121 IN STRESS PERIOD    1

 SAVING SATURATED THICKNESS AND FLOW TERMS ON UNIT   54 FOR MT3DMS
 BY THE LINK-MT3DMS PACKAGE V7 AT TIME STEP  121, STRESS PERIOD    1

 
 SOLVING FOR HEAD 
     1 ITERATIONS FOR TIME STEP 122 IN STRESS PERIOD    1

 SAVING SATURATED THICKNESS AND FLOW TERMS ON UNIT   54 FOR MT3DMS
 BY THE LINK-MT3DMS PACKAGE V7 AT TIME STEP  122, STRESS PERIOD    1

 
 SOLVING FOR HEAD 
     1 ITERATIONS FOR TIME STEP 123 IN STRESS PERIOD    1

 SAVING SATURATED THICKNESS AND FLOW TERMS ON UNIT   54 FOR MT3DMS
 BY THE LINK-MT3DMS PACKAGE V7 AT TIME STEP  123, STRESS PERIOD    1

 
 SOLVING FOR HEAD 
     1 ITERATIONS FOR TIME STEP 124 IN STRESS PERIOD    1

 SAVING SATURATED THICKNESS AND FLOW TERMS ON UNIT   54 FOR MT3DMS
 BY THE LINK-MT3DMS PACKAGE V7 AT TIME STEP  124, STRESS PERIOD    1

 
 SOLVING FOR HEAD 
     1 ITERATIONS FOR TIME STEP 125 IN STRESS PERIOD    1

 SAVING SATURATED THICKNESS AND FLOW TERMS ON UNIT   54 FOR MT3DMS
 BY THE LINK-MT3DMS PACKAGE V7 AT TIME STEP  125, STRESS PERIOD    1

 
 SOLVING FOR HEAD 
     1 ITERATIONS FOR TIME STEP 126 IN STRESS PERIOD    1

 SAVING SATURATED THICKNESS AND FLOW TERMS ON UNIT   54 FOR MT3DMS
 BY THE LINK-MT3DMS PACKAGE V7 AT TIME STEP  126, STRESS PERIOD    1

 
 SOLVING FOR HEAD 
     1 ITERATIONS FOR TIME STEP 127 IN STRESS PERIOD    1

 SAVING SATURATED THICKNESS AND FLOW TERMS ON UNIT   54 FOR MT3DMS
 BY THE LINK-MT3DMS PACKAGE V7 AT TIME STEP  127, STRESS PERIOD    1

 
 SOLVING FOR HEAD 
     1 ITERATIONS FOR TIME STEP 128 IN STRESS PERIOD    1

 SAVING SATURATED THICKNESS AND FLOW TERMS ON UNIT   54 FOR MT3DMS
 BY THE LINK-MT3DMS PACKAGE V7 AT TIME STEP  128, STRESS PERIOD    1

 
 SOLVING FOR HEAD 
     1 ITERATIONS FOR TIME STEP 129 IN STRESS PERIOD    1

 SAVING SATURATED THICKNESS AND FLOW TERMS ON UNIT   54 FOR MT3DMS
 BY THE LINK-MT3DMS PACKAGE V7 AT TIME STEP  129, STRESS PERIOD    1

 
 SOLVING FOR HEAD 
     1 ITERATIONS FOR TIME STEP 130 IN STRESS PERIOD    1

 SAVING SATURATED THICKNESS AND FLOW TERMS ON UNIT   54 FOR MT3DMS
 BY THE LINK-MT3DMS PACKAGE V7 AT TIME STEP  130, STRESS PERIOD    1

 
 SOLVING FOR HEAD 
     1 ITERATIONS FOR TIME STEP 131 IN STRESS PERIOD    1

 SAVING SATURATED THICKNESS AND FLOW TERMS ON UNIT   54 FOR MT3DMS
 BY THE LINK-MT3DMS PACKAGE V7 AT TIME STEP  131, STRESS PERIOD    1

 
 SOLVING FOR HEAD 
     1 ITERATIONS FOR TIME STEP 132 IN STRESS PERIOD    1

 SAVING SATURATED THICKNESS AND FLOW TERMS ON UNIT   54 FOR MT3DMS
 BY THE LINK-MT3DMS PACKAGE V7 AT TIME STEP  132, STRESS PERIOD    1

 
 SOLVING FOR HEAD 
     1 ITERATIONS FOR TIME STEP 133 IN STRESS PERIOD    1

 SAVING SATURATED THICKNESS AND FLOW TERMS ON UNIT   54 FOR MT3DMS
 BY THE LINK-MT3DMS PACKAGE V7 AT TIME STEP  133, STRESS PERIOD    1

 
 SOLVING FOR HEAD 
     1 ITERATIONS FOR TIME STEP 134 IN STRESS PERIOD    1

 SAVING SATURATED THICKNESS AND FLOW TERMS ON UNIT   54 FOR MT3DMS
 BY THE LINK-MT3DMS PACKAGE V7 AT TIME STEP  134, STRESS PERIOD    1

 
 SOLVING FOR HEAD 
     1 ITERATIONS FOR TIME STEP 135 IN STRESS PERIOD    1

 SAVING SATURATED THICKNESS AND FLOW TERMS ON UNIT   54 FOR MT3DMS
 BY THE LINK-MT3DMS PACKAGE V7 AT TIME STEP  135, STRESS PERIOD    1

 
 SOLVING FOR HEAD 
     1 ITERATIONS FOR TIME STEP 136 IN STRESS PERIOD    1

 SAVING SATURATED THICKNESS AND FLOW TERMS ON UNIT   54 FOR MT3DMS
 BY THE LINK-MT3DMS PACKAGE V7 AT TIME STEP  136, STRESS PERIOD    1

 
 SOLVING FOR HEAD 
     1 ITERATIONS FOR TIME STEP 137 IN STRESS PERIOD    1

 SAVING SATURATED THICKNESS AND FLOW TERMS ON UNIT   54 FOR MT3DMS
 BY THE LINK-MT3DMS PACKAGE V7 AT TIME STEP  137, STRESS PERIOD    1

 
 SOLVING FOR HEAD 
     1 ITERATIONS FOR TIME STEP 138 IN STRESS PERIOD    1

 SAVING SATURATED THICKNESS AND FLOW TERMS ON UNIT   54 FOR MT3DMS
 BY THE LINK-MT3DMS PACKAGE V7 AT TIME STEP  138, STRESS PERIOD    1

 
 SOLVING FOR HEAD 
     1 ITERATIONS FOR TIME STEP 139 IN STRESS PERIOD    1

 SAVING SATURATED THICKNESS AND FLOW TERMS ON UNIT   54 FOR MT3DMS
 BY THE LINK-MT3DMS PACKAGE V7 AT TIME STEP  139, STRESS PERIOD    1

 
 SOLVING FOR HEAD 
     1 ITERATIONS FOR TIME STEP 140 IN STRESS PERIOD    1

 SAVING SATURATED THICKNESS AND FLOW TERMS ON UNIT   54 FOR MT3DMS
 BY THE LINK-MT3DMS PACKAGE V7 AT TIME STEP  140, STRESS PERIOD    1

 
 SOLVING FOR HEAD 
     1 ITERATIONS FOR TIME STEP 141 IN STRESS PERIOD    1

 SAVING SATURATED THICKNESS AND FLOW TERMS ON UNIT   54 FOR MT3DMS
 BY THE LINK-MT3DMS PACKAGE V7 AT TIME STEP  141, STRESS PERIOD    1

 
 SOLVING FOR HEAD 
     1 ITERATIONS FOR TIME STEP 142 IN STRESS PERIOD    1

 SAVING SATURATED THICKNESS AND FLOW TERMS ON UNIT   54 FOR MT3DMS
 BY THE LINK-MT3DMS PACKAGE V7 AT TIME STEP  142, STRESS PERIOD    1

 
 SOLVING FOR HEAD 
     1 ITERATIONS FOR TIME STEP 143 IN STRESS PERIOD    1

 SAVING SATURATED THICKNESS AND FLOW TERMS ON UNIT   54 FOR MT3DMS
 BY THE LINK-MT3DMS PACKAGE V7 AT TIME STEP  143, STRESS PERIOD    1

 
 SOLVING FOR HEAD 
     1 ITERATIONS FOR TIME STEP 144 IN STRESS PERIOD    1

 SAVING SATURATED THICKNESS AND FLOW TERMS ON UNIT   54 FOR MT3DMS
 BY THE LINK-MT3DMS PACKAGE V7 AT TIME STEP  144, STRESS PERIOD    1

 
 SOLVING FOR HEAD 
     1 ITERATIONS FOR TIME STEP 145 IN STRESS PERIOD    1

 SAVING SATURATED THICKNESS AND FLOW TERMS ON UNIT   54 FOR MT3DMS
 BY THE LINK-MT3DMS PACKAGE V7 AT TIME STEP  145, STRESS PERIOD    1

 
 SOLVING FOR HEAD 
     1 ITERATIONS FOR TIME STEP 146 IN STRESS PERIOD    1

 SAVING SATURATED THICKNESS AND FLOW TERMS ON UNIT   54 FOR MT3DMS
 BY THE LINK-MT3DMS PACKAGE V7 AT TIME STEP  146, STRESS PERIOD    1

 
 SOLVING FOR HEAD 
     1 ITERATIONS FOR TIME STEP 147 IN STRESS PERIOD    1

 SAVING SATURATED THICKNESS AND FLOW TERMS ON UNIT   54 FOR MT3DMS
 BY THE LINK-MT3DMS PACKAGE V7 AT TIME STEP  147, STRESS PERIOD    1

 
 SOLVING FOR HEAD 
     1 ITERATIONS FOR TIME STEP 148 IN STRESS PERIOD    1

 SAVING SATURATED THICKNESS AND FLOW TERMS ON UNIT   54 FOR MT3DMS
 BY THE LINK-MT3DMS PACKAGE V7 AT TIME STEP  148, STRESS PERIOD    1

 
 SOLVING FOR HEAD 
     1 ITERATIONS FOR TIME STEP 149 IN STRESS PERIOD    1

 SAVING SATURATED THICKNESS AND FLOW TERMS ON UNIT   54 FOR MT3DMS
 BY THE LINK-MT3DMS PACKAGE V7 AT TIME STEP  149, STRESS PERIOD    1

 
 SOLVING FOR HEAD 
     1 ITERATIONS FOR TIME STEP 150 IN STRESS PERIOD    1

 SAVING SATURATED THICKNESS AND FLOW TERMS ON UNIT   54 FOR MT3DMS
 BY THE LINK-MT3DMS PACKAGE V7 AT TIME STEP  150, STRESS PERIOD    1

 
 SOLVING FOR HEAD 
     1 ITERATIONS FOR TIME STEP 151 IN STRESS PERIOD    1

 SAVING SATURATED THICKNESS AND FLOW TERMS ON UNIT   54 FOR MT3DMS
 BY THE LINK-MT3DMS PACKAGE V7 AT TIME STEP  151, STRESS PERIOD    1

 
 SOLVING FOR HEAD 
     1 ITERATIONS FOR TIME STEP 152 IN STRESS PERIOD    1

 SAVING SATURATED THICKNESS AND FLOW TERMS ON UNIT   54 FOR MT3DMS
 BY THE LINK-MT3DMS PACKAGE V7 AT TIME STEP  152, STRESS PERIOD    1

 
 SOLVING FOR HEAD 
     1 ITERATIONS FOR TIME STEP 153 IN STRESS PERIOD    1

 SAVING SATURATED THICKNESS AND FLOW TERMS ON UNIT   54 FOR MT3DMS
 BY THE LINK-MT3DMS PACKAGE V7 AT TIME STEP  153, STRESS PERIOD    1

 
 SOLVING FOR HEAD 
     1 ITERATIONS FOR TIME STEP 154 IN STRESS PERIOD    1

 SAVING SATURATED THICKNESS AND FLOW TERMS ON UNIT   54 FOR MT3DMS
 BY THE LINK-MT3DMS PACKAGE V7 AT TIME STEP  154, STRESS PERIOD    1

 
 SOLVING FOR HEAD 
     1 ITERATIONS FOR TIME STEP 155 IN STRESS PERIOD    1

 SAVING SATURATED THICKNESS AND FLOW TERMS ON UNIT   54 FOR MT3DMS
 BY THE LINK-MT3DMS PACKAGE V7 AT TIME STEP  155, STRESS PERIOD    1

 
 SOLVING FOR HEAD 
     1 ITERATIONS FOR TIME STEP 156 IN STRESS PERIOD    1

 SAVING SATURATED THICKNESS AND FLOW TERMS ON UNIT   54 FOR MT3DMS
 BY THE LINK-MT3DMS PACKAGE V7 AT TIME STEP  156, STRESS PERIOD    1

 
 SOLVING FOR HEAD 
     1 ITERATIONS FOR TIME STEP 157 IN STRESS PERIOD    1

 SAVING SATURATED THICKNESS AND FLOW TERMS ON UNIT   54 FOR MT3DMS
 BY THE LINK-MT3DMS PACKAGE V7 AT TIME STEP  157, STRESS PERIOD    1

 
 SOLVING FOR HEAD 
     1 ITERATIONS FOR TIME STEP 158 IN STRESS PERIOD    1

 SAVING SATURATED THICKNESS AND FLOW TERMS ON UNIT   54 FOR MT3DMS
 BY THE LINK-MT3DMS PACKAGE V7 AT TIME STEP  158, STRESS PERIOD    1

 
 SOLVING FOR HEAD 
     1 ITERATIONS FOR TIME STEP 159 IN STRESS PERIOD    1

 SAVING SATURATED THICKNESS AND FLOW TERMS ON UNIT   54 FOR MT3DMS
 BY THE LINK-MT3DMS PACKAGE V7 AT TIME STEP  159, STRESS PERIOD    1

 
 SOLVING FOR HEAD 
     1 ITERATIONS FOR TIME STEP 160 IN STRESS PERIOD    1

 SAVING SATURATED THICKNESS AND FLOW TERMS ON UNIT   54 FOR MT3DMS
 BY THE LINK-MT3DMS PACKAGE V7 AT TIME STEP  160, STRESS PERIOD    1

 
 SOLVING FOR HEAD 
     1 ITERATIONS FOR TIME STEP 161 IN STRESS PERIOD    1

 SAVING SATURATED THICKNESS AND FLOW TERMS ON UNIT   54 FOR MT3DMS
 BY THE LINK-MT3DMS PACKAGE V7 AT TIME STEP  161, STRESS PERIOD    1

 
 SOLVING FOR HEAD 
     1 ITERATIONS FOR TIME STEP 162 IN STRESS PERIOD    1

 SAVING SATURATED THICKNESS AND FLOW TERMS ON UNIT   54 FOR MT3DMS
 BY THE LINK-MT3DMS PACKAGE V7 AT TIME STEP  162, STRESS PERIOD    1

 
 SOLVING FOR HEAD 
     1 ITERATIONS FOR TIME STEP 163 IN STRESS PERIOD    1

 SAVING SATURATED THICKNESS AND FLOW TERMS ON UNIT   54 FOR MT3DMS
 BY THE LINK-MT3DMS PACKAGE V7 AT TIME STEP  163, STRESS PERIOD    1

 
 SOLVING FOR HEAD 
     1 ITERATIONS FOR TIME STEP 164 IN STRESS PERIOD    1

 SAVING SATURATED THICKNESS AND FLOW TERMS ON UNIT   54 FOR MT3DMS
 BY THE LINK-MT3DMS PACKAGE V7 AT TIME STEP  164, STRESS PERIOD    1

 
 SOLVING FOR HEAD 
     1 ITERATIONS FOR TIME STEP 165 IN STRESS PERIOD    1

 SAVING SATURATED THICKNESS AND FLOW TERMS ON UNIT   54 FOR MT3DMS
 BY THE LINK-MT3DMS PACKAGE V7 AT TIME STEP  165, STRESS PERIOD    1

 
 SOLVING FOR HEAD 
     1 ITERATIONS FOR TIME STEP 166 IN STRESS PERIOD    1

 SAVING SATURATED THICKNESS AND FLOW TERMS ON UNIT   54 FOR MT3DMS
 BY THE LINK-MT3DMS PACKAGE V7 AT TIME STEP  166, STRESS PERIOD    1

 
 SOLVING FOR HEAD 
     1 ITERATIONS FOR TIME STEP 167 IN STRESS PERIOD    1

 SAVING SATURATED THICKNESS AND FLOW TERMS ON UNIT   54 FOR MT3DMS
 BY THE LINK-MT3DMS PACKAGE V7 AT TIME STEP  167, STRESS PERIOD    1

 
 SOLVING FOR HEAD 
     1 ITERATIONS FOR TIME STEP 168 IN STRESS PERIOD    1

 SAVING SATURATED THICKNESS AND FLOW TERMS ON UNIT   54 FOR MT3DMS
 BY THE LINK-MT3DMS PACKAGE V7 AT TIME STEP  168, STRESS PERIOD    1

 
 SOLVING FOR HEAD 
     1 ITERATIONS FOR TIME STEP 169 IN STRESS PERIOD    1

 SAVING SATURATED THICKNESS AND FLOW TERMS ON UNIT   54 FOR MT3DMS
 BY THE LINK-MT3DMS PACKAGE V7 AT TIME STEP  169, STRESS PERIOD    1

 
 SOLVING FOR HEAD 
     1 ITERATIONS FOR TIME STEP 170 IN STRESS PERIOD    1

 SAVING SATURATED THICKNESS AND FLOW TERMS ON UNIT   54 FOR MT3DMS
 BY THE LINK-MT3DMS PACKAGE V7 AT TIME STEP  170, STRESS PERIOD    1

 
 SOLVING FOR HEAD 
     1 ITERATIONS FOR TIME STEP 171 IN STRESS PERIOD    1

 SAVING SATURATED THICKNESS AND FLOW TERMS ON UNIT   54 FOR MT3DMS
 BY THE LINK-MT3DMS PACKAGE V7 AT TIME STEP  171, STRESS PERIOD    1

 
 SOLVING FOR HEAD 
     1 ITERATIONS FOR TIME STEP 172 IN STRESS PERIOD    1

 SAVING SATURATED THICKNESS AND FLOW TERMS ON UNIT   54 FOR MT3DMS
 BY THE LINK-MT3DMS PACKAGE V7 AT TIME STEP  172, STRESS PERIOD    1

 
 SOLVING FOR HEAD 
     1 ITERATIONS FOR TIME STEP 173 IN STRESS PERIOD    1

 SAVING SATURATED THICKNESS AND FLOW TERMS ON UNIT   54 FOR MT3DMS
 BY THE LINK-MT3DMS PACKAGE V7 AT TIME STEP  173, STRESS PERIOD    1

 
 SOLVING FOR HEAD 
     1 ITERATIONS FOR TIME STEP 174 IN STRESS PERIOD    1

 SAVING SATURATED THICKNESS AND FLOW TERMS ON UNIT   54 FOR MT3DMS
 BY THE LINK-MT3DMS PACKAGE V7 AT TIME STEP  174, STRESS PERIOD    1

 
 SOLVING FOR HEAD 
     1 ITERATIONS FOR TIME STEP 175 IN STRESS PERIOD    1

 SAVING SATURATED THICKNESS AND FLOW TERMS ON UNIT   54 FOR MT3DMS
 BY THE LINK-MT3DMS PACKAGE V7 AT TIME STEP  175, STRESS PERIOD    1

 
 SOLVING FOR HEAD 
     1 ITERATIONS FOR TIME STEP 176 IN STRESS PERIOD    1

 SAVING SATURATED THICKNESS AND FLOW TERMS ON UNIT   54 FOR MT3DMS
 BY THE LINK-MT3DMS PACKAGE V7 AT TIME STEP  176, STRESS PERIOD    1

 
 SOLVING FOR HEAD 
     1 ITERATIONS FOR TIME STEP 177 IN STRESS PERIOD    1

 SAVING SATURATED THICKNESS AND FLOW TERMS ON UNIT   54 FOR MT3DMS
 BY THE LINK-MT3DMS PACKAGE V7 AT TIME STEP  177, STRESS PERIOD    1

 
 SOLVING FOR HEAD 
     1 ITERATIONS FOR TIME STEP 178 IN STRESS PERIOD    1

 SAVING SATURATED THICKNESS AND FLOW TERMS ON UNIT   54 FOR MT3DMS
 BY THE LINK-MT3DMS PACKAGE V7 AT TIME STEP  178, STRESS PERIOD    1

 
 SOLVING FOR HEAD 
     1 ITERATIONS FOR TIME STEP 179 IN STRESS PERIOD    1

 SAVING SATURATED THICKNESS AND FLOW TERMS ON UNIT   54 FOR MT3DMS
 BY THE LINK-MT3DMS PACKAGE V7 AT TIME STEP  179, STRESS PERIOD    1

 
 SOLVING FOR HEAD 
     1 ITERATIONS FOR TIME STEP 180 IN STRESS PERIOD    1

 SAVING SATURATED THICKNESS AND FLOW TERMS ON UNIT   54 FOR MT3DMS
 BY THE LINK-MT3DMS PACKAGE V7 AT TIME STEP  180, STRESS PERIOD    1

 
 SOLVING FOR HEAD 
     1 ITERATIONS FOR TIME STEP 181 IN STRESS PERIOD    1

 SAVING SATURATED THICKNESS AND FLOW TERMS ON UNIT   54 FOR MT3DMS
 BY THE LINK-MT3DMS PACKAGE V7 AT TIME STEP  181, STRESS PERIOD    1

 
 SOLVING FOR HEAD 
     1 ITERATIONS FOR TIME STEP 182 IN STRESS PERIOD    1

 SAVING SATURATED THICKNESS AND FLOW TERMS ON UNIT   54 FOR MT3DMS
 BY THE LINK-MT3DMS PACKAGE V7 AT TIME STEP  182, STRESS PERIOD    1

 
 SOLVING FOR HEAD 
     1 ITERATIONS FOR TIME STEP 183 IN STRESS PERIOD    1

 SAVING SATURATED THICKNESS AND FLOW TERMS ON UNIT   54 FOR MT3DMS
 BY THE LINK-MT3DMS PACKAGE V7 AT TIME STEP  183, STRESS PERIOD    1

 
 SOLVING FOR HEAD 
     1 ITERATIONS FOR TIME STEP 184 IN STRESS PERIOD    1

 SAVING SATURATED THICKNESS AND FLOW TERMS ON UNIT   54 FOR MT3DMS
 BY THE LINK-MT3DMS PACKAGE V7 AT TIME STEP  184, STRESS PERIOD    1

 
 SOLVING FOR HEAD 
     1 ITERATIONS FOR TIME STEP 185 IN STRESS PERIOD    1

 SAVING SATURATED THICKNESS AND FLOW TERMS ON UNIT   54 FOR MT3DMS
 BY THE LINK-MT3DMS PACKAGE V7 AT TIME STEP  185, STRESS PERIOD    1

 
 SOLVING FOR HEAD 
     1 ITERATIONS FOR TIME STEP 186 IN STRESS PERIOD    1

 SAVING SATURATED THICKNESS AND FLOW TERMS ON UNIT   54 FOR MT3DMS
 BY THE LINK-MT3DMS PACKAGE V7 AT TIME STEP  186, STRESS PERIOD    1

 
 SOLVING FOR HEAD 
     1 ITERATIONS FOR TIME STEP 187 IN STRESS PERIOD    1

 SAVING SATURATED THICKNESS AND FLOW TERMS ON UNIT   54 FOR MT3DMS
 BY THE LINK-MT3DMS PACKAGE V7 AT TIME STEP  187, STRESS PERIOD    1

 
 SOLVING FOR HEAD 
     1 ITERATIONS FOR TIME STEP 188 IN STRESS PERIOD    1

 SAVING SATURATED THICKNESS AND FLOW TERMS ON UNIT   54 FOR MT3DMS
 BY THE LINK-MT3DMS PACKAGE V7 AT TIME STEP  188, STRESS PERIOD    1

 
 SOLVING FOR HEAD 
     1 ITERATIONS FOR TIME STEP 189 IN STRESS PERIOD    1

 SAVING SATURATED THICKNESS AND FLOW TERMS ON UNIT   54 FOR MT3DMS
 BY THE LINK-MT3DMS PACKAGE V7 AT TIME STEP  189, STRESS PERIOD    1

 
 SOLVING FOR HEAD 
     1 ITERATIONS FOR TIME STEP 190 IN STRESS PERIOD    1

 SAVING SATURATED THICKNESS AND FLOW TERMS ON UNIT   54 FOR MT3DMS
 BY THE LINK-MT3DMS PACKAGE V7 AT TIME STEP  190, STRESS PERIOD    1

 
 SOLVING FOR HEAD 
     1 ITERATIONS FOR TIME STEP 191 IN STRESS PERIOD    1

 SAVING SATURATED THICKNESS AND FLOW TERMS ON UNIT   54 FOR MT3DMS
 BY THE LINK-MT3DMS PACKAGE V7 AT TIME STEP  191, STRESS PERIOD    1

 
 SOLVING FOR HEAD 
     1 ITERATIONS FOR TIME STEP 192 IN STRESS PERIOD    1

 SAVING SATURATED THICKNESS AND FLOW TERMS ON UNIT   54 FOR MT3DMS
 BY THE LINK-MT3DMS PACKAGE V7 AT TIME STEP  192, STRESS PERIOD    1

 
 SOLVING FOR HEAD 
     1 ITERATIONS FOR TIME STEP 193 IN STRESS PERIOD    1

 SAVING SATURATED THICKNESS AND FLOW TERMS ON UNIT   54 FOR MT3DMS
 BY THE LINK-MT3DMS PACKAGE V7 AT TIME STEP  193, STRESS PERIOD    1

 
 SOLVING FOR HEAD 
     1 ITERATIONS FOR TIME STEP 194 IN STRESS PERIOD    1

 SAVING SATURATED THICKNESS AND FLOW TERMS ON UNIT   54 FOR MT3DMS
 BY THE LINK-MT3DMS PACKAGE V7 AT TIME STEP  194, STRESS PERIOD    1

 
 SOLVING FOR HEAD 
     1 ITERATIONS FOR TIME STEP 195 IN STRESS PERIOD    1

 SAVING SATURATED THICKNESS AND FLOW TERMS ON UNIT   54 FOR MT3DMS
 BY THE LINK-MT3DMS PACKAGE V7 AT TIME STEP  195, STRESS PERIOD    1

 
 SOLVING FOR HEAD 
     1 ITERATIONS FOR TIME STEP 196 IN STRESS PERIOD    1

 SAVING SATURATED THICKNESS AND FLOW TERMS ON UNIT   54 FOR MT3DMS
 BY THE LINK-MT3DMS PACKAGE V7 AT TIME STEP  196, STRESS PERIOD    1

 
 SOLVING FOR HEAD 
     1 ITERATIONS FOR TIME STEP 197 IN STRESS PERIOD    1

 SAVING SATURATED THICKNESS AND FLOW TERMS ON UNIT   54 FOR MT3DMS
 BY THE LINK-MT3DMS PACKAGE V7 AT TIME STEP  197, STRESS PERIOD    1

 
 SOLVING FOR HEAD 
     1 ITERATIONS FOR TIME STEP 198 IN STRESS PERIOD    1

 SAVING SATURATED THICKNESS AND FLOW TERMS ON UNIT   54 FOR MT3DMS
 BY THE LINK-MT3DMS PACKAGE V7 AT TIME STEP  198, STRESS PERIOD    1

 
 SOLVING FOR HEAD 
     1 ITERATIONS FOR TIME STEP 199 IN STRESS PERIOD    1

 SAVING SATURATED THICKNESS AND FLOW TERMS ON UNIT   54 FOR MT3DMS
 BY THE LINK-MT3DMS PACKAGE V7 AT TIME STEP  199, STRESS PERIOD    1

 
 SOLVING FOR HEAD 
     1 ITERATIONS FOR TIME STEP 200 IN STRESS PERIOD    1

 SAVING SATURATED THICKNESS AND FLOW TERMS ON UNIT   54 FOR MT3DMS
 BY THE LINK-MT3DMS PACKAGE V7 AT TIME STEP  200, STRESS PERIOD    1

 
 SOLVING FOR HEAD 
     1 ITERATIONS FOR TIME STEP 201 IN STRESS PERIOD    1

 SAVING SATURATED THICKNESS AND FLOW TERMS ON UNIT   54 FOR MT3DMS
 BY THE LINK-MT3DMS PACKAGE V7 AT TIME STEP  201, STRESS PERIOD    1

 
 SOLVING FOR HEAD 
     1 ITERATIONS FOR TIME STEP 202 IN STRESS PERIOD    1

 SAVING SATURATED THICKNESS AND FLOW TERMS ON UNIT   54 FOR MT3DMS
 BY THE LINK-MT3DMS PACKAGE V7 AT TIME STEP  202, STRESS PERIOD    1

 
 SOLVING FOR HEAD 
     1 ITERATIONS FOR TIME STEP 203 IN STRESS PERIOD    1

 SAVING SATURATED THICKNESS AND FLOW TERMS ON UNIT   54 FOR MT3DMS
 BY THE LINK-MT3DMS PACKAGE V7 AT TIME STEP  203, STRESS PERIOD    1

 
 SOLVING FOR HEAD 
     1 ITERATIONS FOR TIME STEP 204 IN STRESS PERIOD    1

 SAVING SATURATED THICKNESS AND FLOW TERMS ON UNIT   54 FOR MT3DMS
 BY THE LINK-MT3DMS PACKAGE V7 AT TIME STEP  204, STRESS PERIOD    1

 
 SOLVING FOR HEAD 
     1 ITERATIONS FOR TIME STEP 205 IN STRESS PERIOD    1

 SAVING SATURATED THICKNESS AND FLOW TERMS ON UNIT   54 FOR MT3DMS
 BY THE LINK-MT3DMS PACKAGE V7 AT TIME STEP  205, STRESS PERIOD    1

 
 SOLVING FOR HEAD 
     1 ITERATIONS FOR TIME STEP 206 IN STRESS PERIOD    1

 SAVING SATURATED THICKNESS AND FLOW TERMS ON UNIT   54 FOR MT3DMS
 BY THE LINK-MT3DMS PACKAGE V7 AT TIME STEP  206, STRESS PERIOD    1

 
 SOLVING FOR HEAD 
     1 ITERATIONS FOR TIME STEP 207 IN STRESS PERIOD    1

 SAVING SATURATED THICKNESS AND FLOW TERMS ON UNIT   54 FOR MT3DMS
 BY THE LINK-MT3DMS PACKAGE V7 AT TIME STEP  207, STRESS PERIOD    1

 
 SOLVING FOR HEAD 
     1 ITERATIONS FOR TIME STEP 208 IN STRESS PERIOD    1

 SAVING SATURATED THICKNESS AND FLOW TERMS ON UNIT   54 FOR MT3DMS
 BY THE LINK-MT3DMS PACKAGE V7 AT TIME STEP  208, STRESS PERIOD    1

 
 SOLVING FOR HEAD 
     1 ITERATIONS FOR TIME STEP 209 IN STRESS PERIOD    1

 SAVING SATURATED THICKNESS AND FLOW TERMS ON UNIT   54 FOR MT3DMS
 BY THE LINK-MT3DMS PACKAGE V7 AT TIME STEP  209, STRESS PERIOD    1

 
 SOLVING FOR HEAD 
     1 ITERATIONS FOR TIME STEP 210 IN STRESS PERIOD    1

 SAVING SATURATED THICKNESS AND FLOW TERMS ON UNIT   54 FOR MT3DMS
 BY THE LINK-MT3DMS PACKAGE V7 AT TIME STEP  210, STRESS PERIOD    1

 
 SOLVING FOR HEAD 
     1 ITERATIONS FOR TIME STEP 211 IN STRESS PERIOD    1

 SAVING SATURATED THICKNESS AND FLOW TERMS ON UNIT   54 FOR MT3DMS
 BY THE LINK-MT3DMS PACKAGE V7 AT TIME STEP  211, STRESS PERIOD    1

 
 SOLVING FOR HEAD 
     1 ITERATIONS FOR TIME STEP 212 IN STRESS PERIOD    1

 SAVING SATURATED THICKNESS AND FLOW TERMS ON UNIT   54 FOR MT3DMS
 BY THE LINK-MT3DMS PACKAGE V7 AT TIME STEP  212, STRESS PERIOD    1

 
 SOLVING FOR HEAD 
     1 ITERATIONS FOR TIME STEP 213 IN STRESS PERIOD    1

 SAVING SATURATED THICKNESS AND FLOW TERMS ON UNIT   54 FOR MT3DMS
 BY THE LINK-MT3DMS PACKAGE V7 AT TIME STEP  213, STRESS PERIOD    1

 
 SOLVING FOR HEAD 
     1 ITERATIONS FOR TIME STEP 214 IN STRESS PERIOD    1

 SAVING SATURATED THICKNESS AND FLOW TERMS ON UNIT   54 FOR MT3DMS
 BY THE LINK-MT3DMS PACKAGE V7 AT TIME STEP  214, STRESS PERIOD    1

 
 SOLVING FOR HEAD 
     1 ITERATIONS FOR TIME STEP 215 IN STRESS PERIOD    1

 SAVING SATURATED THICKNESS AND FLOW TERMS ON UNIT   54 FOR MT3DMS
 BY THE LINK-MT3DMS PACKAGE V7 AT TIME STEP  215, STRESS PERIOD    1

 
 SOLVING FOR HEAD 
     1 ITERATIONS FOR TIME STEP 216 IN STRESS PERIOD    1

 SAVING SATURATED THICKNESS AND FLOW TERMS ON UNIT   54 FOR MT3DMS
 BY THE LINK-MT3DMS PACKAGE V7 AT TIME STEP  216, STRESS PERIOD    1

 
 SOLVING FOR HEAD 
     1 ITERATIONS FOR TIME STEP 217 IN STRESS PERIOD    1

 SAVING SATURATED THICKNESS AND FLOW TERMS ON UNIT   54 FOR MT3DMS
 BY THE LINK-MT3DMS PACKAGE V7 AT TIME STEP  217, STRESS PERIOD    1

 
 SOLVING FOR HEAD 
     1 ITERATIONS FOR TIME STEP 218 IN STRESS PERIOD    1

 SAVING SATURATED THICKNESS AND FLOW TERMS ON UNIT   54 FOR MT3DMS
 BY THE LINK-MT3DMS PACKAGE V7 AT TIME STEP  218, STRESS PERIOD    1

 
 SOLVING FOR HEAD 
     1 ITERATIONS FOR TIME STEP 219 IN STRESS PERIOD    1

 SAVING SATURATED THICKNESS AND FLOW TERMS ON UNIT   54 FOR MT3DMS
 BY THE LINK-MT3DMS PACKAGE V7 AT TIME STEP  219, STRESS PERIOD    1

 
 SOLVING FOR HEAD 
     1 ITERATIONS FOR TIME STEP 220 IN STRESS PERIOD    1

 SAVING SATURATED THICKNESS AND FLOW TERMS ON UNIT   54 FOR MT3DMS
 BY THE LINK-MT3DMS PACKAGE V7 AT TIME STEP  220, STRESS PERIOD    1

 
 SOLVING FOR HEAD 
     1 ITERATIONS FOR TIME STEP 221 IN STRESS PERIOD    1

 SAVING SATURATED THICKNESS AND FLOW TERMS ON UNIT   54 FOR MT3DMS
 BY THE LINK-MT3DMS PACKAGE V7 AT TIME STEP  221, STRESS PERIOD    1

 
 SOLVING FOR HEAD 
     1 ITERATIONS FOR TIME STEP 222 IN STRESS PERIOD    1

 SAVING SATURATED THICKNESS AND FLOW TERMS ON UNIT   54 FOR MT3DMS
 BY THE LINK-MT3DMS PACKAGE V7 AT TIME STEP  222, STRESS PERIOD    1

 
 SOLVING FOR HEAD 
     1 ITERATIONS FOR TIME STEP 223 IN STRESS PERIOD    1

 SAVING SATURATED THICKNESS AND FLOW TERMS ON UNIT   54 FOR MT3DMS
 BY THE LINK-MT3DMS PACKAGE V7 AT TIME STEP  223, STRESS PERIOD    1

 
 SOLVING FOR HEAD 
     1 ITERATIONS FOR TIME STEP 224 IN STRESS PERIOD    1

 SAVING SATURATED THICKNESS AND FLOW TERMS ON UNIT   54 FOR MT3DMS
 BY THE LINK-MT3DMS PACKAGE V7 AT TIME STEP  224, STRESS PERIOD    1

 
 SOLVING FOR HEAD 
     1 ITERATIONS FOR TIME STEP 225 IN STRESS PERIOD    1

 SAVING SATURATED THICKNESS AND FLOW TERMS ON UNIT   54 FOR MT3DMS
 BY THE LINK-MT3DMS PACKAGE V7 AT TIME STEP  225, STRESS PERIOD    1

 
 SOLVING FOR HEAD 
     1 ITERATIONS FOR TIME STEP 226 IN STRESS PERIOD    1

 SAVING SATURATED THICKNESS AND FLOW TERMS ON UNIT   54 FOR MT3DMS
 BY THE LINK-MT3DMS PACKAGE V7 AT TIME STEP  226, STRESS PERIOD    1

 
 SOLVING FOR HEAD 
     1 ITERATIONS FOR TIME STEP 227 IN STRESS PERIOD    1

 SAVING SATURATED THICKNESS AND FLOW TERMS ON UNIT   54 FOR MT3DMS
 BY THE LINK-MT3DMS PACKAGE V7 AT TIME STEP  227, STRESS PERIOD    1

 
 SOLVING FOR HEAD 
     1 ITERATIONS FOR TIME STEP 228 IN STRESS PERIOD    1

 SAVING SATURATED THICKNESS AND FLOW TERMS ON UNIT   54 FOR MT3DMS
 BY THE LINK-MT3DMS PACKAGE V7 AT TIME STEP  228, STRESS PERIOD    1

 
 SOLVING FOR HEAD 
     1 ITERATIONS FOR TIME STEP 229 IN STRESS PERIOD    1

 SAVING SATURATED THICKNESS AND FLOW TERMS ON UNIT   54 FOR MT3DMS
 BY THE LINK-MT3DMS PACKAGE V7 AT TIME STEP  229, STRESS PERIOD    1

 
 SOLVING FOR HEAD 
     1 ITERATIONS FOR TIME STEP 230 IN STRESS PERIOD    1

 SAVING SATURATED THICKNESS AND FLOW TERMS ON UNIT   54 FOR MT3DMS
 BY THE LINK-MT3DMS PACKAGE V7 AT TIME STEP  230, STRESS PERIOD    1

 
 SOLVING FOR HEAD 
     1 ITERATIONS FOR TIME STEP 231 IN STRESS PERIOD    1

 SAVING SATURATED THICKNESS AND FLOW TERMS ON UNIT   54 FOR MT3DMS
 BY THE LINK-MT3DMS PACKAGE V7 AT TIME STEP  231, STRESS PERIOD    1

 
 SOLVING FOR HEAD 
     1 ITERATIONS FOR TIME STEP 232 IN STRESS PERIOD    1

 SAVING SATURATED THICKNESS AND FLOW TERMS ON UNIT   54 FOR MT3DMS
 BY THE LINK-MT3DMS PACKAGE V7 AT TIME STEP  232, STRESS PERIOD    1

 
 SOLVING FOR HEAD 
     1 ITERATIONS FOR TIME STEP 233 IN STRESS PERIOD    1

 SAVING SATURATED THICKNESS AND FLOW TERMS ON UNIT   54 FOR MT3DMS
 BY THE LINK-MT3DMS PACKAGE V7 AT TIME STEP  233, STRESS PERIOD    1

 
 SOLVING FOR HEAD 
     1 ITERATIONS FOR TIME STEP 234 IN STRESS PERIOD    1

 SAVING SATURATED THICKNESS AND FLOW TERMS ON UNIT   54 FOR MT3DMS
 BY THE LINK-MT3DMS PACKAGE V7 AT TIME STEP  234, STRESS PERIOD    1

 
 SOLVING FOR HEAD 
     1 ITERATIONS FOR TIME STEP 235 IN STRESS PERIOD    1

 SAVING SATURATED THICKNESS AND FLOW TERMS ON UNIT   54 FOR MT3DMS
 BY THE LINK-MT3DMS PACKAGE V7 AT TIME STEP  235, STRESS PERIOD    1

 
 SOLVING FOR HEAD 
     1 ITERATIONS FOR TIME STEP 236 IN STRESS PERIOD    1

 SAVING SATURATED THICKNESS AND FLOW TERMS ON UNIT   54 FOR MT3DMS
 BY THE LINK-MT3DMS PACKAGE V7 AT TIME STEP  236, STRESS PERIOD    1

 
 SOLVING FOR HEAD 
     1 ITERATIONS FOR TIME STEP 237 IN STRESS PERIOD    1

 SAVING SATURATED THICKNESS AND FLOW TERMS ON UNIT   54 FOR MT3DMS
 BY THE LINK-MT3DMS PACKAGE V7 AT TIME STEP  237, STRESS PERIOD    1

 
 SOLVING FOR HEAD 
     1 ITERATIONS FOR TIME STEP 238 IN STRESS PERIOD    1

 SAVING SATURATED THICKNESS AND FLOW TERMS ON UNIT   54 FOR MT3DMS
 BY THE LINK-MT3DMS PACKAGE V7 AT TIME STEP  238, STRESS PERIOD    1

 
 SOLVING FOR HEAD 
     1 ITERATIONS FOR TIME STEP 239 IN STRESS PERIOD    1

 SAVING SATURATED THICKNESS AND FLOW TERMS ON UNIT   54 FOR MT3DMS
 BY THE LINK-MT3DMS PACKAGE V7 AT TIME STEP  239, STRESS PERIOD    1

 
 SOLVING FOR HEAD 
     1 ITERATIONS FOR TIME STEP 240 IN STRESS PERIOD    1

 SAVING SATURATED THICKNESS AND FLOW TERMS ON UNIT   54 FOR MT3DMS
 BY THE LINK-MT3DMS PACKAGE V7 AT TIME STEP  240, STRESS PERIOD    1

 
 SOLVING FOR HEAD 
     1 ITERATIONS FOR TIME STEP 241 IN STRESS PERIOD    1

 SAVING SATURATED THICKNESS AND FLOW TERMS ON UNIT   54 FOR MT3DMS
 BY THE LINK-MT3DMS PACKAGE V7 AT TIME STEP  241, STRESS PERIOD    1

 
 SOLVING FOR HEAD 
     1 ITERATIONS FOR TIME STEP 242 IN STRESS PERIOD    1

 SAVING SATURATED THICKNESS AND FLOW TERMS ON UNIT   54 FOR MT3DMS
 BY THE LINK-MT3DMS PACKAGE V7 AT TIME STEP  242, STRESS PERIOD    1

 
 SOLVING FOR HEAD 
     1 ITERATIONS FOR TIME STEP 243 IN STRESS PERIOD    1

 SAVING SATURATED THICKNESS AND FLOW TERMS ON UNIT   54 FOR MT3DMS
 BY THE LINK-MT3DMS PACKAGE V7 AT TIME STEP  243, STRESS PERIOD    1

 
 SOLVING FOR HEAD 
     1 ITERATIONS FOR TIME STEP 244 IN STRESS PERIOD    1

 SAVING SATURATED THICKNESS AND FLOW TERMS ON UNIT   54 FOR MT3DMS
 BY THE LINK-MT3DMS PACKAGE V7 AT TIME STEP  244, STRESS PERIOD    1

 
 SOLVING FOR HEAD 
     1 ITERATIONS FOR TIME STEP 245 IN STRESS PERIOD    1

 SAVING SATURATED THICKNESS AND FLOW TERMS ON UNIT   54 FOR MT3DMS
 BY THE LINK-MT3DMS PACKAGE V7 AT TIME STEP  245, STRESS PERIOD    1

 
 SOLVING FOR HEAD 
     1 ITERATIONS FOR TIME STEP 246 IN STRESS PERIOD    1

 SAVING SATURATED THICKNESS AND FLOW TERMS ON UNIT   54 FOR MT3DMS
 BY THE LINK-MT3DMS PACKAGE V7 AT TIME STEP  246, STRESS PERIOD    1

 
 SOLVING FOR HEAD 
     1 ITERATIONS FOR TIME STEP 247 IN STRESS PERIOD    1

 SAVING SATURATED THICKNESS AND FLOW TERMS ON UNIT   54 FOR MT3DMS
 BY THE LINK-MT3DMS PACKAGE V7 AT TIME STEP  247, STRESS PERIOD    1

 
 SOLVING FOR HEAD 
     1 ITERATIONS FOR TIME STEP 248 IN STRESS PERIOD    1

 SAVING SATURATED THICKNESS AND FLOW TERMS ON UNIT   54 FOR MT3DMS
 BY THE LINK-MT3DMS PACKAGE V7 AT TIME STEP  248, STRESS PERIOD    1

 
 SOLVING FOR HEAD 
     1 ITERATIONS FOR TIME STEP 249 IN STRESS PERIOD    1

 SAVING SATURATED THICKNESS AND FLOW TERMS ON UNIT   54 FOR MT3DMS
 BY THE LINK-MT3DMS PACKAGE V7 AT TIME STEP  249, STRESS PERIOD    1

 
 SOLVING FOR HEAD 
     1 ITERATIONS FOR TIME STEP 250 IN STRESS PERIOD    1

 SAVING SATURATED THICKNESS AND FLOW TERMS ON UNIT   54 FOR MT3DMS
 BY THE LINK-MT3DMS PACKAGE V7 AT TIME STEP  250, STRESS PERIOD    1

 
 SOLVING FOR HEAD 
     1 ITERATIONS FOR TIME STEP 251 IN STRESS PERIOD    1

 SAVING SATURATED THICKNESS AND FLOW TERMS ON UNIT   54 FOR MT3DMS
 BY THE LINK-MT3DMS PACKAGE V7 AT TIME STEP  251, STRESS PERIOD    1

 
 SOLVING FOR HEAD 
     1 ITERATIONS FOR TIME STEP 252 IN STRESS PERIOD    1

 SAVING SATURATED THICKNESS AND FLOW TERMS ON UNIT   54 FOR MT3DMS
 BY THE LINK-MT3DMS PACKAGE V7 AT TIME STEP  252, STRESS PERIOD    1

 
 SOLVING FOR HEAD 
     1 ITERATIONS FOR TIME STEP 253 IN STRESS PERIOD    1

 SAVING SATURATED THICKNESS AND FLOW TERMS ON UNIT   54 FOR MT3DMS
 BY THE LINK-MT3DMS PACKAGE V7 AT TIME STEP  253, STRESS PERIOD    1

 
 SOLVING FOR HEAD 
     1 ITERATIONS FOR TIME STEP 254 IN STRESS PERIOD    1

 SAVING SATURATED THICKNESS AND FLOW TERMS ON UNIT   54 FOR MT3DMS
 BY THE LINK-MT3DMS PACKAGE V7 AT TIME STEP  254, STRESS PERIOD    1

 
 SOLVING FOR HEAD 
     1 ITERATIONS FOR TIME STEP 255 IN STRESS PERIOD    1

 SAVING SATURATED THICKNESS AND FLOW TERMS ON UNIT   54 FOR MT3DMS
 BY THE LINK-MT3DMS PACKAGE V7 AT TIME STEP  255, STRESS PERIOD    1

 
 SOLVING FOR HEAD 
     1 ITERATIONS FOR TIME STEP 256 IN STRESS PERIOD    1

 SAVING SATURATED THICKNESS AND FLOW TERMS ON UNIT   54 FOR MT3DMS
 BY THE LINK-MT3DMS PACKAGE V7 AT TIME STEP  256, STRESS PERIOD    1

 
 SOLVING FOR HEAD 
     1 ITERATIONS FOR TIME STEP 257 IN STRESS PERIOD    1

 SAVING SATURATED THICKNESS AND FLOW TERMS ON UNIT   54 FOR MT3DMS
 BY THE LINK-MT3DMS PACKAGE V7 AT TIME STEP  257, STRESS PERIOD    1

 
 SOLVING FOR HEAD 
     1 ITERATIONS FOR TIME STEP 258 IN STRESS PERIOD    1

 SAVING SATURATED THICKNESS AND FLOW TERMS ON UNIT   54 FOR MT3DMS
 BY THE LINK-MT3DMS PACKAGE V7 AT TIME STEP  258, STRESS PERIOD    1

 
 SOLVING FOR HEAD 
     1 ITERATIONS FOR TIME STEP 259 IN STRESS PERIOD    1

 SAVING SATURATED THICKNESS AND FLOW TERMS ON UNIT   54 FOR MT3DMS
 BY THE LINK-MT3DMS PACKAGE V7 AT TIME STEP  259, STRESS PERIOD    1

 
 SOLVING FOR HEAD 
     1 ITERATIONS FOR TIME STEP 260 IN STRESS PERIOD    1

 SAVING SATURATED THICKNESS AND FLOW TERMS ON UNIT   54 FOR MT3DMS
 BY THE LINK-MT3DMS PACKAGE V7 AT TIME STEP  260, STRESS PERIOD    1

 
 SOLVING FOR HEAD 
     1 ITERATIONS FOR TIME STEP 261 IN STRESS PERIOD    1

 SAVING SATURATED THICKNESS AND FLOW TERMS ON UNIT   54 FOR MT3DMS
 BY THE LINK-MT3DMS PACKAGE V7 AT TIME STEP  261, STRESS PERIOD    1

 
 SOLVING FOR HEAD 
     1 ITERATIONS FOR TIME STEP 262 IN STRESS PERIOD    1

 SAVING SATURATED THICKNESS AND FLOW TERMS ON UNIT   54 FOR MT3DMS
 BY THE LINK-MT3DMS PACKAGE V7 AT TIME STEP  262, STRESS PERIOD    1

 
 SOLVING FOR HEAD 
     1 ITERATIONS FOR TIME STEP 263 IN STRESS PERIOD    1

 SAVING SATURATED THICKNESS AND FLOW TERMS ON UNIT   54 FOR MT3DMS
 BY THE LINK-MT3DMS PACKAGE V7 AT TIME STEP  263, STRESS PERIOD    1

 
 SOLVING FOR HEAD 
     1 ITERATIONS FOR TIME STEP 264 IN STRESS PERIOD    1

 SAVING SATURATED THICKNESS AND FLOW TERMS ON UNIT   54 FOR MT3DMS
 BY THE LINK-MT3DMS PACKAGE V7 AT TIME STEP  264, STRESS PERIOD    1

 
 SOLVING FOR HEAD 
     1 ITERATIONS FOR TIME STEP 265 IN STRESS PERIOD    1

 SAVING SATURATED THICKNESS AND FLOW TERMS ON UNIT   54 FOR MT3DMS
 BY THE LINK-MT3DMS PACKAGE V7 AT TIME STEP  265, STRESS PERIOD    1

 
 SOLVING FOR HEAD 
     1 ITERATIONS FOR TIME STEP 266 IN STRESS PERIOD    1

 SAVING SATURATED THICKNESS AND FLOW TERMS ON UNIT   54 FOR MT3DMS
 BY THE LINK-MT3DMS PACKAGE V7 AT TIME STEP  266, STRESS PERIOD    1

 
 SOLVING FOR HEAD 
     1 ITERATIONS FOR TIME STEP 267 IN STRESS PERIOD    1

 SAVING SATURATED THICKNESS AND FLOW TERMS ON UNIT   54 FOR MT3DMS
 BY THE LINK-MT3DMS PACKAGE V7 AT TIME STEP  267, STRESS PERIOD    1

 
 SOLVING FOR HEAD 
     1 ITERATIONS FOR TIME STEP 268 IN STRESS PERIOD    1

 SAVING SATURATED THICKNESS AND FLOW TERMS ON UNIT   54 FOR MT3DMS
 BY THE LINK-MT3DMS PACKAGE V7 AT TIME STEP  268, STRESS PERIOD    1

 
 SOLVING FOR HEAD 
     1 ITERATIONS FOR TIME STEP 269 IN STRESS PERIOD    1

 SAVING SATURATED THICKNESS AND FLOW TERMS ON UNIT   54 FOR MT3DMS
 BY THE LINK-MT3DMS PACKAGE V7 AT TIME STEP  269, STRESS PERIOD    1

 
 SOLVING FOR HEAD 
     1 ITERATIONS FOR TIME STEP 270 IN STRESS PERIOD    1

 SAVING SATURATED THICKNESS AND FLOW TERMS ON UNIT   54 FOR MT3DMS
 BY THE LINK-MT3DMS PACKAGE V7 AT TIME STEP  270, STRESS PERIOD    1

 
 SOLVING FOR HEAD 
     1 ITERATIONS FOR TIME STEP 271 IN STRESS PERIOD    1

 SAVING SATURATED THICKNESS AND FLOW TERMS ON UNIT   54 FOR MT3DMS
 BY THE LINK-MT3DMS PACKAGE V7 AT TIME STEP  271, STRESS PERIOD    1

 
 SOLVING FOR HEAD 
     1 ITERATIONS FOR TIME STEP 272 IN STRESS PERIOD    1

 SAVING SATURATED THICKNESS AND FLOW TERMS ON UNIT   54 FOR MT3DMS
 BY THE LINK-MT3DMS PACKAGE V7 AT TIME STEP  272, STRESS PERIOD    1

 
 SOLVING FOR HEAD 
     1 ITERATIONS FOR TIME STEP 273 IN STRESS PERIOD    1

 SAVING SATURATED THICKNESS AND FLOW TERMS ON UNIT   54 FOR MT3DMS
 BY THE LINK-MT3DMS PACKAGE V7 AT TIME STEP  273, STRESS PERIOD    1

 
 SOLVING FOR HEAD 
     1 ITERATIONS FOR TIME STEP 274 IN STRESS PERIOD    1

 SAVING SATURATED THICKNESS AND FLOW TERMS ON UNIT   54 FOR MT3DMS
 BY THE LINK-MT3DMS PACKAGE V7 AT TIME STEP  274, STRESS PERIOD    1

 
 SOLVING FOR HEAD 
     1 ITERATIONS FOR TIME STEP 275 IN STRESS PERIOD    1

 SAVING SATURATED THICKNESS AND FLOW TERMS ON UNIT   54 FOR MT3DMS
 BY THE LINK-MT3DMS PACKAGE V7 AT TIME STEP  275, STRESS PERIOD    1

 
 SOLVING FOR HEAD 
     1 ITERATIONS FOR TIME STEP 276 IN STRESS PERIOD    1

 SAVING SATURATED THICKNESS AND FLOW TERMS ON UNIT   54 FOR MT3DMS
 BY THE LINK-MT3DMS PACKAGE V7 AT TIME STEP  276, STRESS PERIOD    1

 
 SOLVING FOR HEAD 
     1 ITERATIONS FOR TIME STEP 277 IN STRESS PERIOD    1

 SAVING SATURATED THICKNESS AND FLOW TERMS ON UNIT   54 FOR MT3DMS
 BY THE LINK-MT3DMS PACKAGE V7 AT TIME STEP  277, STRESS PERIOD    1

 
 SOLVING FOR HEAD 
     1 ITERATIONS FOR TIME STEP 278 IN STRESS PERIOD    1

 SAVING SATURATED THICKNESS AND FLOW TERMS ON UNIT   54 FOR MT3DMS
 BY THE LINK-MT3DMS PACKAGE V7 AT TIME STEP  278, STRESS PERIOD    1

 
 SOLVING FOR HEAD 
     1 ITERATIONS FOR TIME STEP 279 IN STRESS PERIOD    1

 SAVING SATURATED THICKNESS AND FLOW TERMS ON UNIT   54 FOR MT3DMS
 BY THE LINK-MT3DMS PACKAGE V7 AT TIME STEP  279, STRESS PERIOD    1

 
 SOLVING FOR HEAD 
     1 ITERATIONS FOR TIME STEP 280 IN STRESS PERIOD    1

 SAVING SATURATED THICKNESS AND FLOW TERMS ON UNIT   54 FOR MT3DMS
 BY THE LINK-MT3DMS PACKAGE V7 AT TIME STEP  280, STRESS PERIOD    1

 
 SOLVING FOR HEAD 
     1 ITERATIONS FOR TIME STEP 281 IN STRESS PERIOD    1

 SAVING SATURATED THICKNESS AND FLOW TERMS ON UNIT   54 FOR MT3DMS
 BY THE LINK-MT3DMS PACKAGE V7 AT TIME STEP  281, STRESS PERIOD    1

 
 SOLVING FOR HEAD 
     1 ITERATIONS FOR TIME STEP 282 IN STRESS PERIOD    1

 SAVING SATURATED THICKNESS AND FLOW TERMS ON UNIT   54 FOR MT3DMS
 BY THE LINK-MT3DMS PACKAGE V7 AT TIME STEP  282, STRESS PERIOD    1

 
 SOLVING FOR HEAD 
     1 ITERATIONS FOR TIME STEP 283 IN STRESS PERIOD    1

 SAVING SATURATED THICKNESS AND FLOW TERMS ON UNIT   54 FOR MT3DMS
 BY THE LINK-MT3DMS PACKAGE V7 AT TIME STEP  283, STRESS PERIOD    1

 
 SOLVING FOR HEAD 
     1 ITERATIONS FOR TIME STEP 284 IN STRESS PERIOD    1

 SAVING SATURATED THICKNESS AND FLOW TERMS ON UNIT   54 FOR MT3DMS
 BY THE LINK-MT3DMS PACKAGE V7 AT TIME STEP  284, STRESS PERIOD    1

 
 SOLVING FOR HEAD 
     1 ITERATIONS FOR TIME STEP 285 IN STRESS PERIOD    1

 SAVING SATURATED THICKNESS AND FLOW TERMS ON UNIT   54 FOR MT3DMS
 BY THE LINK-MT3DMS PACKAGE V7 AT TIME STEP  285, STRESS PERIOD    1

 
 SOLVING FOR HEAD 
     1 ITERATIONS FOR TIME STEP 286 IN STRESS PERIOD    1

 SAVING SATURATED THICKNESS AND FLOW TERMS ON UNIT   54 FOR MT3DMS
 BY THE LINK-MT3DMS PACKAGE V7 AT TIME STEP  286, STRESS PERIOD    1

 
 SOLVING FOR HEAD 
     1 ITERATIONS FOR TIME STEP 287 IN STRESS PERIOD    1

 SAVING SATURATED THICKNESS AND FLOW TERMS ON UNIT   54 FOR MT3DMS
 BY THE LINK-MT3DMS PACKAGE V7 AT TIME STEP  287, STRESS PERIOD    1

 
 SOLVING FOR HEAD 
     1 ITERATIONS FOR TIME STEP 288 IN STRESS PERIOD    1

 SAVING SATURATED THICKNESS AND FLOW TERMS ON UNIT   54 FOR MT3DMS
 BY THE LINK-MT3DMS PACKAGE V7 AT TIME STEP  288, STRESS PERIOD    1

 
 SOLVING FOR HEAD 
     1 ITERATIONS FOR TIME STEP 289 IN STRESS PERIOD    1

 SAVING SATURATED THICKNESS AND FLOW TERMS ON UNIT   54 FOR MT3DMS
 BY THE LINK-MT3DMS PACKAGE V7 AT TIME STEP  289, STRESS PERIOD    1

 
 SOLVING FOR HEAD 
     1 ITERATIONS FOR TIME STEP 290 IN STRESS PERIOD    1

 SAVING SATURATED THICKNESS AND FLOW TERMS ON UNIT   54 FOR MT3DMS
 BY THE LINK-MT3DMS PACKAGE V7 AT TIME STEP  290, STRESS PERIOD    1

 
 SOLVING FOR HEAD 
     1 ITERATIONS FOR TIME STEP 291 IN STRESS PERIOD    1

 SAVING SATURATED THICKNESS AND FLOW TERMS ON UNIT   54 FOR MT3DMS
 BY THE LINK-MT3DMS PACKAGE V7 AT TIME STEP  291, STRESS PERIOD    1

 
 SOLVING FOR HEAD 
     1 ITERATIONS FOR TIME STEP 292 IN STRESS PERIOD    1

 SAVING SATURATED THICKNESS AND FLOW TERMS ON UNIT   54 FOR MT3DMS
 BY THE LINK-MT3DMS PACKAGE V7 AT TIME STEP  292, STRESS PERIOD    1

 
 SOLVING FOR HEAD 
     1 ITERATIONS FOR TIME STEP 293 IN STRESS PERIOD    1

 SAVING SATURATED THICKNESS AND FLOW TERMS ON UNIT   54 FOR MT3DMS
 BY THE LINK-MT3DMS PACKAGE V7 AT TIME STEP  293, STRESS PERIOD    1

 
 SOLVING FOR HEAD 
     1 ITERATIONS FOR TIME STEP 294 IN STRESS PERIOD    1

 SAVING SATURATED THICKNESS AND FLOW TERMS ON UNIT   54 FOR MT3DMS
 BY THE LINK-MT3DMS PACKAGE V7 AT TIME STEP  294, STRESS PERIOD    1

 
 SOLVING FOR HEAD 
     1 ITERATIONS FOR TIME STEP 295 IN STRESS PERIOD    1

 SAVING SATURATED THICKNESS AND FLOW TERMS ON UNIT   54 FOR MT3DMS
 BY THE LINK-MT3DMS PACKAGE V7 AT TIME STEP  295, STRESS PERIOD    1

 
 SOLVING FOR HEAD 
     1 ITERATIONS FOR TIME STEP 296 IN STRESS PERIOD    1

 SAVING SATURATED THICKNESS AND FLOW TERMS ON UNIT   54 FOR MT3DMS
 BY THE LINK-MT3DMS PACKAGE V7 AT TIME STEP  296, STRESS PERIOD    1

 
 SOLVING FOR HEAD 
     1 ITERATIONS FOR TIME STEP 297 IN STRESS PERIOD    1

 SAVING SATURATED THICKNESS AND FLOW TERMS ON UNIT   54 FOR MT3DMS
 BY THE LINK-MT3DMS PACKAGE V7 AT TIME STEP  297, STRESS PERIOD    1

 
 SOLVING FOR HEAD 
     1 ITERATIONS FOR TIME STEP 298 IN STRESS PERIOD    1

 SAVING SATURATED THICKNESS AND FLOW TERMS ON UNIT   54 FOR MT3DMS
 BY THE LINK-MT3DMS PACKAGE V7 AT TIME STEP  298, STRESS PERIOD    1

 
 SOLVING FOR HEAD 
     1 ITERATIONS FOR TIME STEP 299 IN STRESS PERIOD    1

 SAVING SATURATED THICKNESS AND FLOW TERMS ON UNIT   54 FOR MT3DMS
 BY THE LINK-MT3DMS PACKAGE V7 AT TIME STEP  299, STRESS PERIOD    1

 
 SOLVING FOR HEAD 
     1 ITERATIONS FOR TIME STEP 300 IN STRESS PERIOD    1

 SAVING SATURATED THICKNESS AND FLOW TERMS ON UNIT   54 FOR MT3DMS
 BY THE LINK-MT3DMS PACKAGE V7 AT TIME STEP  300, STRESS PERIOD    1

 
 SOLVING FOR HEAD 
     1 ITERATIONS FOR TIME STEP 301 IN STRESS PERIOD    1

 SAVING SATURATED THICKNESS AND FLOW TERMS ON UNIT   54 FOR MT3DMS
 BY THE LINK-MT3DMS PACKAGE V7 AT TIME STEP  301, STRESS PERIOD    1

 
 SOLVING FOR HEAD 
     1 ITERATIONS FOR TIME STEP 302 IN STRESS PERIOD    1

 SAVING SATURATED THICKNESS AND FLOW TERMS ON UNIT   54 FOR MT3DMS
 BY THE LINK-MT3DMS PACKAGE V7 AT TIME STEP  302, STRESS PERIOD    1

 
 SOLVING FOR HEAD 
     1 ITERATIONS FOR TIME STEP 303 IN STRESS PERIOD    1

 SAVING SATURATED THICKNESS AND FLOW TERMS ON UNIT   54 FOR MT3DMS
 BY THE LINK-MT3DMS PACKAGE V7 AT TIME STEP  303, STRESS PERIOD    1

 
 SOLVING FOR HEAD 
     1 ITERATIONS FOR TIME STEP 304 IN STRESS PERIOD    1

 SAVING SATURATED THICKNESS AND FLOW TERMS ON UNIT   54 FOR MT3DMS
 BY THE LINK-MT3DMS PACKAGE V7 AT TIME STEP  304, STRESS PERIOD    1

 
 SOLVING FOR HEAD 
     1 ITERATIONS FOR TIME STEP 305 IN STRESS PERIOD    1

 SAVING SATURATED THICKNESS AND FLOW TERMS ON UNIT   54 FOR MT3DMS
 BY THE LINK-MT3DMS PACKAGE V7 AT TIME STEP  305, STRESS PERIOD    1

 
 SOLVING FOR HEAD 
     1 ITERATIONS FOR TIME STEP 306 IN STRESS PERIOD    1

 SAVING SATURATED THICKNESS AND FLOW TERMS ON UNIT   54 FOR MT3DMS
 BY THE LINK-MT3DMS PACKAGE V7 AT TIME STEP  306, STRESS PERIOD    1

 
 SOLVING FOR HEAD 
     1 ITERATIONS FOR TIME STEP 307 IN STRESS PERIOD    1

 SAVING SATURATED THICKNESS AND FLOW TERMS ON UNIT   54 FOR MT3DMS
 BY THE LINK-MT3DMS PACKAGE V7 AT TIME STEP  307, STRESS PERIOD    1

 
 SOLVING FOR HEAD 
     1 ITERATIONS FOR TIME STEP 308 IN STRESS PERIOD    1

 SAVING SATURATED THICKNESS AND FLOW TERMS ON UNIT   54 FOR MT3DMS
 BY THE LINK-MT3DMS PACKAGE V7 AT TIME STEP  308, STRESS PERIOD    1

 
 SOLVING FOR HEAD 
     1 ITERATIONS FOR TIME STEP 309 IN STRESS PERIOD    1

 SAVING SATURATED THICKNESS AND FLOW TERMS ON UNIT   54 FOR MT3DMS
 BY THE LINK-MT3DMS PACKAGE V7 AT TIME STEP  309, STRESS PERIOD    1

 
 SOLVING FOR HEAD 
     1 ITERATIONS FOR TIME STEP 310 IN STRESS PERIOD    1

 SAVING SATURATED THICKNESS AND FLOW TERMS ON UNIT   54 FOR MT3DMS
 BY THE LINK-MT3DMS PACKAGE V7 AT TIME STEP  310, STRESS PERIOD    1

 
 SOLVING FOR HEAD 
     1 ITERATIONS FOR TIME STEP 311 IN STRESS PERIOD    1

 SAVING SATURATED THICKNESS AND FLOW TERMS ON UNIT   54 FOR MT3DMS
 BY THE LINK-MT3DMS PACKAGE V7 AT TIME STEP  311, STRESS PERIOD    1

 
 SOLVING FOR HEAD 
     1 ITERATIONS FOR TIME STEP 312 IN STRESS PERIOD    1

 SAVING SATURATED THICKNESS AND FLOW TERMS ON UNIT   54 FOR MT3DMS
 BY THE LINK-MT3DMS PACKAGE V7 AT TIME STEP  312, STRESS PERIOD    1

 
 SOLVING FOR HEAD 
     1 ITERATIONS FOR TIME STEP 313 IN STRESS PERIOD    1

 SAVING SATURATED THICKNESS AND FLOW TERMS ON UNIT   54 FOR MT3DMS
 BY THE LINK-MT3DMS PACKAGE V7 AT TIME STEP  313, STRESS PERIOD    1

 
 SOLVING FOR HEAD 
     1 ITERATIONS FOR TIME STEP 314 IN STRESS PERIOD    1

 SAVING SATURATED THICKNESS AND FLOW TERMS ON UNIT   54 FOR MT3DMS
 BY THE LINK-MT3DMS PACKAGE V7 AT TIME STEP  314, STRESS PERIOD    1

 
 SOLVING FOR HEAD 
     1 ITERATIONS FOR TIME STEP 315 IN STRESS PERIOD    1

 SAVING SATURATED THICKNESS AND FLOW TERMS ON UNIT   54 FOR MT3DMS
 BY THE LINK-MT3DMS PACKAGE V7 AT TIME STEP  315, STRESS PERIOD    1

 
 SOLVING FOR HEAD 
     1 ITERATIONS FOR TIME STEP 316 IN STRESS PERIOD    1

 SAVING SATURATED THICKNESS AND FLOW TERMS ON UNIT   54 FOR MT3DMS
 BY THE LINK-MT3DMS PACKAGE V7 AT TIME STEP  316, STRESS PERIOD    1

 
 SOLVING FOR HEAD 
     1 ITERATIONS FOR TIME STEP 317 IN STRESS PERIOD    1

 SAVING SATURATED THICKNESS AND FLOW TERMS ON UNIT   54 FOR MT3DMS
 BY THE LINK-MT3DMS PACKAGE V7 AT TIME STEP  317, STRESS PERIOD    1

 
 SOLVING FOR HEAD 
     1 ITERATIONS FOR TIME STEP 318 IN STRESS PERIOD    1

 SAVING SATURATED THICKNESS AND FLOW TERMS ON UNIT   54 FOR MT3DMS
 BY THE LINK-MT3DMS PACKAGE V7 AT TIME STEP  318, STRESS PERIOD    1

 
 SOLVING FOR HEAD 
     1 ITERATIONS FOR TIME STEP 319 IN STRESS PERIOD    1

 SAVING SATURATED THICKNESS AND FLOW TERMS ON UNIT   54 FOR MT3DMS
 BY THE LINK-MT3DMS PACKAGE V7 AT TIME STEP  319, STRESS PERIOD    1

 
 SOLVING FOR HEAD 
     1 ITERATIONS FOR TIME STEP 320 IN STRESS PERIOD    1

 SAVING SATURATED THICKNESS AND FLOW TERMS ON UNIT   54 FOR MT3DMS
 BY THE LINK-MT3DMS PACKAGE V7 AT TIME STEP  320, STRESS PERIOD    1

 
 SOLVING FOR HEAD 
     1 ITERATIONS FOR TIME STEP 321 IN STRESS PERIOD    1

 SAVING SATURATED THICKNESS AND FLOW TERMS ON UNIT   54 FOR MT3DMS
 BY THE LINK-MT3DMS PACKAGE V7 AT TIME STEP  321, STRESS PERIOD    1

 
 SOLVING FOR HEAD 
     1 ITERATIONS FOR TIME STEP 322 IN STRESS PERIOD    1

 SAVING SATURATED THICKNESS AND FLOW TERMS ON UNIT   54 FOR MT3DMS
 BY THE LINK-MT3DMS PACKAGE V7 AT TIME STEP  322, STRESS PERIOD    1

 
 SOLVING FOR HEAD 
     1 ITERATIONS FOR TIME STEP 323 IN STRESS PERIOD    1

 SAVING SATURATED THICKNESS AND FLOW TERMS ON UNIT   54 FOR MT3DMS
 BY THE LINK-MT3DMS PACKAGE V7 AT TIME STEP  323, STRESS PERIOD    1

 
 SOLVING FOR HEAD 
     1 ITERATIONS FOR TIME STEP 324 IN STRESS PERIOD    1

 SAVING SATURATED THICKNESS AND FLOW TERMS ON UNIT   54 FOR MT3DMS
 BY THE LINK-MT3DMS PACKAGE V7 AT TIME STEP  324, STRESS PERIOD    1

 
 SOLVING FOR HEAD 
     1 ITERATIONS FOR TIME STEP 325 IN STRESS PERIOD    1

 SAVING SATURATED THICKNESS AND FLOW TERMS ON UNIT   54 FOR MT3DMS
 BY THE LINK-MT3DMS PACKAGE V7 AT TIME STEP  325, STRESS PERIOD    1

 
 SOLVING FOR HEAD 
     1 ITERATIONS FOR TIME STEP 326 IN STRESS PERIOD    1

 SAVING SATURATED THICKNESS AND FLOW TERMS ON UNIT   54 FOR MT3DMS
 BY THE LINK-MT3DMS PACKAGE V7 AT TIME STEP  326, STRESS PERIOD    1

 
 SOLVING FOR HEAD 
     1 ITERATIONS FOR TIME STEP 327 IN STRESS PERIOD    1

 SAVING SATURATED THICKNESS AND FLOW TERMS ON UNIT   54 FOR MT3DMS
 BY THE LINK-MT3DMS PACKAGE V7 AT TIME STEP  327, STRESS PERIOD    1

 
 SOLVING FOR HEAD 
     1 ITERATIONS FOR TIME STEP 328 IN STRESS PERIOD    1

 SAVING SATURATED THICKNESS AND FLOW TERMS ON UNIT   54 FOR MT3DMS
 BY THE LINK-MT3DMS PACKAGE V7 AT TIME STEP  328, STRESS PERIOD    1

 
 SOLVING FOR HEAD 
     1 ITERATIONS FOR TIME STEP 329 IN STRESS PERIOD    1

 SAVING SATURATED THICKNESS AND FLOW TERMS ON UNIT   54 FOR MT3DMS
 BY THE LINK-MT3DMS PACKAGE V7 AT TIME STEP  329, STRESS PERIOD    1

 
 SOLVING FOR HEAD 
     1 ITERATIONS FOR TIME STEP 330 IN STRESS PERIOD    1

 SAVING SATURATED THICKNESS AND FLOW TERMS ON UNIT   54 FOR MT3DMS
 BY THE LINK-MT3DMS PACKAGE V7 AT TIME STEP  330, STRESS PERIOD    1

 
 SOLVING FOR HEAD 
     1 ITERATIONS FOR TIME STEP 331 IN STRESS PERIOD    1

 SAVING SATURATED THICKNESS AND FLOW TERMS ON UNIT   54 FOR MT3DMS
 BY THE LINK-MT3DMS PACKAGE V7 AT TIME STEP  331, STRESS PERIOD    1

 
 SOLVING FOR HEAD 
     1 ITERATIONS FOR TIME STEP 332 IN STRESS PERIOD    1

 SAVING SATURATED THICKNESS AND FLOW TERMS ON UNIT   54 FOR MT3DMS
 BY THE LINK-MT3DMS PACKAGE V7 AT TIME STEP  332, STRESS PERIOD    1

 
 SOLVING FOR HEAD 
     1 ITERATIONS FOR TIME STEP 333 IN STRESS PERIOD    1

 SAVING SATURATED THICKNESS AND FLOW TERMS ON UNIT   54 FOR MT3DMS
 BY THE LINK-MT3DMS PACKAGE V7 AT TIME STEP  333, STRESS PERIOD    1

 
 SOLVING FOR HEAD 
     1 ITERATIONS FOR TIME STEP 334 IN STRESS PERIOD    1

 SAVING SATURATED THICKNESS AND FLOW TERMS ON UNIT   54 FOR MT3DMS
 BY THE LINK-MT3DMS PACKAGE V7 AT TIME STEP  334, STRESS PERIOD    1

 
 SOLVING FOR HEAD 
     1 ITERATIONS FOR TIME STEP 335 IN STRESS PERIOD    1

 SAVING SATURATED THICKNESS AND FLOW TERMS ON UNIT   54 FOR MT3DMS
 BY THE LINK-MT3DMS PACKAGE V7 AT TIME STEP  335, STRESS PERIOD    1

 
 SOLVING FOR HEAD 
     1 ITERATIONS FOR TIME STEP 336 IN STRESS PERIOD    1

 SAVING SATURATED THICKNESS AND FLOW TERMS ON UNIT   54 FOR MT3DMS
 BY THE LINK-MT3DMS PACKAGE V7 AT TIME STEP  336, STRESS PERIOD    1

 
 SOLVING FOR HEAD 
     1 ITERATIONS FOR TIME STEP 337 IN STRESS PERIOD    1

 SAVING SATURATED THICKNESS AND FLOW TERMS ON UNIT   54 FOR MT3DMS
 BY THE LINK-MT3DMS PACKAGE V7 AT TIME STEP  337, STRESS PERIOD    1

 
 SOLVING FOR HEAD 
     1 ITERATIONS FOR TIME STEP 338 IN STRESS PERIOD    1

 SAVING SATURATED THICKNESS AND FLOW TERMS ON UNIT   54 FOR MT3DMS
 BY THE LINK-MT3DMS PACKAGE V7 AT TIME STEP  338, STRESS PERIOD    1

 
 SOLVING FOR HEAD 
     1 ITERATIONS FOR TIME STEP 339 IN STRESS PERIOD    1

 SAVING SATURATED THICKNESS AND FLOW TERMS ON UNIT   54 FOR MT3DMS
 BY THE LINK-MT3DMS PACKAGE V7 AT TIME STEP  339, STRESS PERIOD    1

 
 SOLVING FOR HEAD 
     1 ITERATIONS FOR TIME STEP 340 IN STRESS PERIOD    1

 SAVING SATURATED THICKNESS AND FLOW TERMS ON UNIT   54 FOR MT3DMS
 BY THE LINK-MT3DMS PACKAGE V7 AT TIME STEP  340, STRESS PERIOD    1

 
 SOLVING FOR HEAD 
     1 ITERATIONS FOR TIME STEP 341 IN STRESS PERIOD    1

 SAVING SATURATED THICKNESS AND FLOW TERMS ON UNIT   54 FOR MT3DMS
 BY THE LINK-MT3DMS PACKAGE V7 AT TIME STEP  341, STRESS PERIOD    1

 
 SOLVING FOR HEAD 
     1 ITERATIONS FOR TIME STEP 342 IN STRESS PERIOD    1

 SAVING SATURATED THICKNESS AND FLOW TERMS ON UNIT   54 FOR MT3DMS
 BY THE LINK-MT3DMS PACKAGE V7 AT TIME STEP  342, STRESS PERIOD    1

 
 SOLVING FOR HEAD 
     1 ITERATIONS FOR TIME STEP 343 IN STRESS PERIOD    1

 SAVING SATURATED THICKNESS AND FLOW TERMS ON UNIT   54 FOR MT3DMS
 BY THE LINK-MT3DMS PACKAGE V7 AT TIME STEP  343, STRESS PERIOD    1

 
 SOLVING FOR HEAD 
[...]
 BY THE LINK-MT3DMS PACKAGE V7 AT TIME STEP 1073, STRESS PERIOD    2

 
 SOLVING FOR HEAD 
     1 ITERATIONS FOR TIME STEP1074 IN STRESS PERIOD    2

 SAVING SATURATED THICKNESS AND FLOW TERMS ON UNIT   54 FOR MT3DMS
 BY THE LINK-MT3DMS PACKAGE V7 AT TIME STEP 1074, STRESS PERIOD    2

 
 SOLVING FOR HEAD 
     1 ITERATIONS FOR TIME STEP1075 IN STRESS PERIOD    2

 SAVING SATURATED THICKNESS AND FLOW TERMS ON UNIT   54 FOR MT3DMS
 BY THE LINK-MT3DMS PACKAGE V7 AT TIME STEP 1075, STRESS PERIOD    2

 
 SOLVING FOR HEAD 
     1 ITERATIONS FOR TIME STEP1076 IN STRESS PERIOD    2

 SAVING SATURATED THICKNESS AND FLOW TERMS ON UNIT   54 FOR MT3DMS
 BY THE LINK-MT3DMS PACKAGE V7 AT TIME STEP 1076, STRESS PERIOD    2

 
 SOLVING FOR HEAD 
     1 ITERATIONS FOR TIME STEP1077 IN STRESS PERIOD    2

 SAVING SATURATED THICKNESS AND FLOW TERMS ON UNIT   54 FOR MT3DMS
 BY THE LINK-MT3DMS PACKAGE V7 AT TIME STEP 1077, STRESS PERIOD    2

 
 SOLVING FOR HEAD 
     1 ITERATIONS FOR TIME STEP1078 IN STRESS PERIOD    2

 SAVING SATURATED THICKNESS AND FLOW TERMS ON UNIT   54 FOR MT3DMS
 BY THE LINK-MT3DMS PACKAGE V7 AT TIME STEP 1078, STRESS PERIOD    2

 
 SOLVING FOR HEAD 
     1 ITERATIONS FOR TIME STEP1079 IN STRESS PERIOD    2

 SAVING SATURATED THICKNESS AND FLOW TERMS ON UNIT   54 FOR MT3DMS
 BY THE LINK-MT3DMS PACKAGE V7 AT TIME STEP 1079, STRESS PERIOD    2

 
 SOLVING FOR HEAD 
     1 ITERATIONS FOR TIME STEP1080 IN STRESS PERIOD    2

 SAVING SATURATED THICKNESS AND FLOW TERMS ON UNIT   54 FOR MT3DMS
 BY THE LINK-MT3DMS PACKAGE V7 AT TIME STEP 1080, STRESS PERIOD    2

 
 SOLVING FOR HEAD 
     1 ITERATIONS FOR TIME STEP1081 IN STRESS PERIOD    2

 SAVING SATURATED THICKNESS AND FLOW TERMS ON UNIT   54 FOR MT3DMS
 BY THE LINK-MT3DMS PACKAGE V7 AT TIME STEP 1081, STRESS PERIOD    2

 
 SOLVING FOR HEAD 
     1 ITERATIONS FOR TIME STEP1082 IN STRESS PERIOD    2

 SAVING SATURATED THICKNESS AND FLOW TERMS ON UNIT   54 FOR MT3DMS
 BY THE LINK-MT3DMS PACKAGE V7 AT TIME STEP 1082, STRESS PERIOD    2

 
 SOLVING FOR HEAD 
     1 ITERATIONS FOR TIME STEP1083 IN STRESS PERIOD    2

 SAVING SATURATED THICKNESS AND FLOW TERMS ON UNIT   54 FOR MT3DMS
 BY THE LINK-MT3DMS PACKAGE V7 AT TIME STEP 1083, STRESS PERIOD    2

 
 SOLVING FOR HEAD 
     1 ITERATIONS FOR TIME STEP1084 IN STRESS PERIOD    2

 SAVING SATURATED THICKNESS AND FLOW TERMS ON UNIT   54 FOR MT3DMS
 BY THE LINK-MT3DMS PACKAGE V7 AT TIME STEP 1084, STRESS PERIOD    2

 
 SOLVING FOR HEAD 
     1 ITERATIONS FOR TIME STEP1085 IN STRESS PERIOD    2

 SAVING SATURATED THICKNESS AND FLOW TERMS ON UNIT   54 FOR MT3DMS
 BY THE LINK-MT3DMS PACKAGE V7 AT TIME STEP 1085, STRESS PERIOD    2

 
 SOLVING FOR HEAD 
     1 ITERATIONS FOR TIME STEP1086 IN STRESS PERIOD    2

 SAVING SATURATED THICKNESS AND FLOW TERMS ON UNIT   54 FOR MT3DMS
 BY THE LINK-MT3DMS PACKAGE V7 AT TIME STEP 1086, STRESS PERIOD    2

 
 SOLVING FOR HEAD 
     1 ITERATIONS FOR TIME STEP1087 IN STRESS PERIOD    2

 SAVING SATURATED THICKNESS AND FLOW TERMS ON UNIT   54 FOR MT3DMS
 BY THE LINK-MT3DMS PACKAGE V7 AT TIME STEP 1087, STRESS PERIOD    2

 
 SOLVING FOR HEAD 
     1 ITERATIONS FOR TIME STEP1088 IN STRESS PERIOD    2

 SAVING SATURATED THICKNESS AND FLOW TERMS ON UNIT   54 FOR MT3DMS
 BY THE LINK-MT3DMS PACKAGE V7 AT TIME STEP 1088, STRESS PERIOD    2

 
 SOLVING FOR HEAD 
     1 ITERATIONS FOR TIME STEP1089 IN STRESS PERIOD    2

 SAVING SATURATED THICKNESS AND FLOW TERMS ON UNIT   54 FOR MT3DMS
 BY THE LINK-MT3DMS PACKAGE V7 AT TIME STEP 1089, STRESS PERIOD    2

 
 SOLVING FOR HEAD 
     1 ITERATIONS FOR TIME STEP1090 IN STRESS PERIOD    2

 SAVING SATURATED THICKNESS AND FLOW TERMS ON UNIT   54 FOR MT3DMS
 BY THE LINK-MT3DMS PACKAGE V7 AT TIME STEP 1090, STRESS PERIOD    2

 
 SOLVING FOR HEAD 
     1 ITERATIONS FOR TIME STEP1091 IN STRESS PERIOD    2

 SAVING SATURATED THICKNESS AND FLOW TERMS ON UNIT   54 FOR MT3DMS
 BY THE LINK-MT3DMS PACKAGE V7 AT TIME STEP 1091, STRESS PERIOD    2

 
 SOLVING FOR HEAD 
     1 ITERATIONS FOR TIME STEP1092 IN STRESS PERIOD    2

 SAVING SATURATED THICKNESS AND FLOW TERMS ON UNIT   54 FOR MT3DMS
 BY THE LINK-MT3DMS PACKAGE V7 AT TIME STEP 1092, STRESS PERIOD    2

 
 SOLVING FOR HEAD 
     1 ITERATIONS FOR TIME STEP1093 IN STRESS PERIOD    2

 SAVING SATURATED THICKNESS AND FLOW TERMS ON UNIT   54 FOR MT3DMS
 BY THE LINK-MT3DMS PACKAGE V7 AT TIME STEP 1093, STRESS PERIOD    2

 
 SOLVING FOR HEAD 
     1 ITERATIONS FOR TIME STEP1094 IN STRESS PERIOD    2

 SAVING SATURATED THICKNESS AND FLOW TERMS ON UNIT   54 FOR MT3DMS
 BY THE LINK-MT3DMS PACKAGE V7 AT TIME STEP 1094, STRESS PERIOD    2

 
 SOLVING FOR HEAD 
     1 ITERATIONS FOR TIME STEP1095 IN STRESS PERIOD    2

 MAXIMUM HEAD CHANGE FOR EACH ITERATION:

    HEAD CHANGE   HEAD CHANGE   HEAD CHANGE   HEAD CHANGE   HEAD CHANGE
  LAYER,ROW,COL LAYER,ROW,COL LAYER,ROW,COL LAYER,ROW,COL LAYER,ROW,COL
 ----------------------------------------------------------------------
     0.1675E-14
  (  1, 16, 17)


 SAVING SATURATED THICKNESS AND FLOW TERMS ON UNIT   54 FOR MT3DMS
 BY THE LINK-MT3DMS PACKAGE V7 AT TIME STEP 1095, STRESS PERIOD    2

1
              HEAD IN LAYER   1 AT END OF TIME STEP *** IN STRESS PERIOD    2
  ---------------------------------------------------------------------------

            1           2           3           4           5           6           7           8           9          10
           11          12          13          14          15          16          17          18          19          20
           21          22          23          24          25          26          27          28          29          30
           31
 ........................................................................................................................
   1    0.000       0.000       0.000       0.000       0.000       0.000       0.000       0.000       0.000       0.000    
        0.000       0.000       0.000       0.000       0.000       0.000       0.000       0.000       0.000       0.000    
        0.000       0.000       0.000       0.000       0.000       0.000       0.000       0.000       0.000       0.000    
        0.000    
   2    0.000     -1.2125E-02 -2.4249E-02 -3.6366E-02 -4.8449E-02 -6.0450E-02 -7.2286E-02 -8.3837E-02 -9.4938E-02 -0.1054    
      -0.1149     -0.1233     -0.1302     -0.1353     -0.1385     -0.1396     -0.1385     -0.1353     -0.1302     -0.1233    
      -0.1149     -0.1054     -9.4938E-02 -8.3837E-02 -7.2286E-02 -6.0450E-02 -4.8449E-02 -3.6366E-02 -2.4249E-02 -1.2125E-02
        0.000    
   3    0.000     -2.4249E-02 -4.8507E-02 -7.2764E-02 -9.6981E-02 -0.1211     -0.1449     -0.1681     -0.1905     -0.2117    
      -0.2310     -0.2480     -0.2620     -0.2726     -0.2791     -0.2813     -0.2791     -0.2726     -0.2620     -0.2480    
      -0.2310     -0.2117     -0.1905     -0.1681     -0.1449     -0.1211     -9.6981E-02 -7.2764E-02 -4.8507E-02 -2.4249E-02
        0.000    
   4    0.000     -3.6366E-02 -7.2764E-02 -0.1092     -0.1456     -0.1820     -0.2180     -0.2533     -0.2874     -0.3197    
      -0.3495     -0.3757     -0.3975     -0.4138     -0.4240     -0.4274     -0.4240     -0.4138     -0.3975     -0.3757    
      -0.3495     -0.3197     -0.2874     -0.2533     -0.2180     -0.1820     -0.1456     -0.1092     -7.2764E-02 -3.6366E-02
        0.000    
   5    0.000     -4.8449E-02 -9.6981E-02 -0.1456     -0.1944     -0.2432     -0.2917     -0.3396     -0.3861     -0.4304    
      -0.4714     -0.5079     -0.5383     -0.5613     -0.5756     -0.5805     -0.5756     -0.5613     -0.5383     -0.5079    
      -0.4714     -0.4304     -0.3861     -0.3396     -0.2917     -0.2432     -0.1944     -0.1456     -9.6981E-02 -4.8449E-02
        0.000    
   6    0.000     -6.0450E-02 -0.1211     -0.1820     -0.2432     -0.3047     -0.3662     -0.4272     -0.4870     -0.5444    
      -0.5980     -0.6460     -0.6865     -0.7174     -0.7367     -0.7433     -0.7367     -0.7174     -0.6865     -0.6460    
      -0.5980     -0.5444     -0.4870     -0.4272     -0.3662     -0.3047     -0.2432     -0.1820     -0.1211     -6.0450E-02
        0.000    
   7    0.000     -7.2286E-02 -0.1449     -0.2180     -0.2917     -0.3662     -0.4411     -0.5161     -0.5902     -0.6621    
      -0.7301     -0.7918     -0.8444     -0.8849     -0.9106     -0.9194     -0.9106     -0.8849     -0.8444     -0.7918    
      -0.7301     -0.6621     -0.5902     -0.5161     -0.4411     -0.3662     -0.2917     -0.2180     -0.1449     -7.2286E-02
        0.000    
   8    0.000     -8.3837E-02 -0.1681     -0.2533     -0.3396     -0.4272     -0.5161     -0.6058     -0.6956     -0.7839    
      -0.8686     -0.9466      -1.014      -1.067      -1.101      -1.113      -1.101      -1.067      -1.014     -0.9466    
      -0.8686     -0.7839     -0.6956     -0.6058     -0.5161     -0.4272     -0.3396     -0.2533     -0.1681     -8.3837E-02
        0.000    
   9    0.000     -9.4938E-02 -0.1905     -0.2874     -0.3861     -0.4870     -0.5902     -0.6956     -0.8024     -0.9092    
       -1.014      -1.112      -1.199      -1.269      -1.314      -1.330      -1.314      -1.269      -1.199      -1.112    
       -1.014     -0.9092     -0.8024     -0.6956     -0.5902     -0.4870     -0.3861     -0.2874     -0.1905     -9.4938E-02
        0.000    
  10    0.000     -0.1054     -0.2117     -0.3197     -0.4304     -0.5444     -0.6621     -0.7839     -0.9092      -1.037    
       -1.165      -1.288      -1.401      -1.494      -1.557      -1.579      -1.557      -1.494      -1.401      -1.288    
       -1.165      -1.037     -0.9092     -0.7839     -0.6621     -0.5444     -0.4304     -0.3197     -0.2117     -0.1054    
        0.000    
  11    0.000     -0.1149     -0.2310     -0.3495     -0.4714     -0.5980     -0.7301     -0.8686      -1.014      -1.165    
       -1.320      -1.475      -1.623      -1.750      -1.840      -1.873      -1.840      -1.750      -1.623      -1.475    
       -1.320      -1.165      -1.014     -0.8686     -0.7301     -0.5980     -0.4714     -0.3495     -0.2310     -0.1149    
        0.000    
  12    0.000     -0.1233     -0.2480     -0.3757     -0.5079     -0.6460     -0.7918     -0.9466      -1.112      -1.288    
       -1.475      -1.670      -1.865      -2.044      -2.179      -2.233      -2.179      -2.044      -1.865      -1.670    
       -1.475      -1.288      -1.112     -0.9466     -0.7918     -0.6460     -0.5079     -0.3757     -0.2480     -0.1233    
        0.000    
  13    0.000     -0.1302     -0.2620     -0.3975     -0.5383     -0.6865     -0.8444      -1.014      -1.199      -1.401    
       -1.623      -1.865      -2.123      -2.382      -2.599      -2.700      -2.599      -2.382      -2.123      -1.865    
       -1.623      -1.401      -1.199      -1.014     -0.8444     -0.6865     -0.5383     -0.3975     -0.2620     -0.1302    
        0.000    
  14    0.000     -0.1353     -0.2726     -0.4138     -0.5613     -0.7174     -0.8849      -1.067      -1.269      -1.494    
       -1.750      -2.044      -2.382      -2.759      -3.137      -3.369      -3.137      -2.759      -2.382      -2.044    
       -1.750      -1.494      -1.269      -1.067     -0.8849     -0.7174     -0.5613     -0.4138     -0.2726     -0.1353    
        0.000    
  15    0.000     -0.1385     -0.2791     -0.4240     -0.5756     -0.7367     -0.9106      -1.101      -1.314      -1.557    
       -1.840      -2.179      -2.599      -3.137      -3.820      -4.503      -3.820      -3.137      -2.599      -2.179    
       -1.840      -1.557      -1.314      -1.101     -0.9106     -0.7367     -0.5756     -0.4240     -0.2791     -0.1385    
        0.000    
  16    0.000     -0.1396     -0.2813     -0.4274     -0.5805     -0.7433     -0.9194      -1.113      -1.330      -1.579    
       -1.873      -2.233      -2.700      -3.369      -4.503      -7.003      -4.503      -3.369      -2.700      -2.233    
       -1.873      -1.579      -1.330      -1.113     -0.9194     -0.7433     -0.5805     -0.4274     -0.2813     -0.1396    
        0.000    
  17    0.000     -0.1385     -0.2791     -0.4240     -0.5756     -0.7367     -0.9106      -1.101      -1.314      -1.557    
       -1.840      -2.179      -2.599      -3.137      -3.820      -4.503      -3.820      -3.137      -2.599      -2.179    
       -1.840      -1.557      -1.314      -1.101     -0.9106     -0.7367     -0.5756     -0.4240     -0.2791     -0.1385    
        0.000    
  18    0.000     -0.1353     -0.2726     -0.4138     -0.5613     -0.7174     -0.8849      -1.067      -1.269      -1.494    
       -1.750      -2.044      -2.382      -2.759      -3.137      -3.369      -3.137      -2.759      -2.382      -2.044    
       -1.750      -1.494      -1.269      -1.067     -0.8849     -0.7174     -0.5613     -0.4138     -0.2726     -0.1353    
        0.000    
  19    0.000     -0.1302     -0.2620     -0.3975     -0.5383     -0.6865     -0.8444      -1.014      -1.199      -1.401    
       -1.623      -1.865      -2.123      -2.382      -2.599      -2.700      -2.599      -2.382      -2.123      -1.865    
       -1.623      -1.401      -1.199      -1.014     -0.8444     -0.6865     -0.5383     -0.3975     -0.2620     -0.1302    
        0.000    
  20    0.000     -0.1233     -0.2480     -0.3757     -0.5079     -0.6460     -0.7918     -0.9466      -1.112      -1.288    
       -1.475      -1.670      -1.865      -2.044      -2.179      -2.233      -2.179      -2.044      -1.865      -1.670    
       -1.475      -1.288      -1.112     -0.9466     -0.7918     -0.6460     -0.5079     -0.3757     -0.2480     -0.1233    
        0.000    
  21    0.000     -0.1149     -0.2310     -0.3495     -0.4714     -0.5980     -0.7301     -0.8686      -1.014      -1.165    
       -1.320      -1.475      -1.623      -1.750      -1.840      -1.873      -1.840      -1.750      -1.623      -1.475    
       -1.320      -1.165      -1.014     -0.8686     -0.7301     -0.5980     -0.4714     -0.3495     -0.2310     -0.1149    
        0.000    
  22    0.000     -0.1054     -0.2117     -0.3197     -0.4304     -0.5444     -0.6621     -0.7839     -0.9092      -1.037    
       -1.165      -1.288      -1.401      -1.494      -1.557      -1.579      -1.557      -1.494      -1.401      -1.288    
       -1.165      -1.037     -0.9092     -0.7839     -0.6621     -0.5444     -0.4304     -0.3197     -0.2117     -0.1054    
        0.000    
  23    0.000     -9.4938E-02 -0.1905     -0.2874     -0.3861     -0.4870     -0.5902     -0.6956     -0.8024     -0.9092    
       -1.014      -1.112      -1.199      -1.269      -1.314      -1.330      -1.314      -1.269      -1.199      -1.112    
       -1.014     -0.9092     -0.8024     -0.6956     -0.5902     -0.4870     -0.3861     -0.2874     -0.1905     -9.4938E-02
        0.000    
  24    0.000     -8.3837E-02 -0.1681     -0.2533     -0.3396     -0.4272     -0.5161     -0.6058     -0.6956     -0.7839    
      -0.8686     -0.9466      -1.014      -1.067      -1.101      -1.113      -1.101      -1.067      -1.014     -0.9466    
      -0.8686     -0.7839     -0.6956     -0.6058     -0.5161     -0.4272     -0.3396     -0.2533     -0.1681     -8.3837E-02
        0.000    
  25    0.000     -7.2286E-02 -0.1449     -0.2180     -0.2917     -0.3662     -0.4411     -0.5161     -0.5902     -0.6621    
      -0.7301     -0.7918     -0.8444     -0.8849     -0.9106     -0.9194     -0.9106     -0.8849     -0.8444     -0.7918    
      -0.7301     -0.6621     -0.5902     -0.5161     -0.4411     -0.3662     -0.2917     -0.2180     -0.1449     -7.2286E-02
        0.000    
  26    0.000     -6.0450E-02 -0.1211     -0.1820     -0.2432     -0.3047     -0.3662     -0.4272     -0.4870     -0.5444    
      -0.5980     -0.6460     -0.6865     -0.7174     -0.7367     -0.7433     -0.7367     -0.7174     -0.6865     -0.6460    
      -0.5980     -0.5444     -0.4870     -0.4272     -0.3662     -0.3047     -0.2432     -0.1820     -0.1211     -6.0450E-02
        0.000    
  27    0.000     -4.8449E-02 -9.6981E-02 -0.1456     -0.1944     -0.2432     -0.2917     -0.3396     -0.3861     -0.4304    
      -0.4714     -0.5079     -0.5383     -0.5613     -0.5756     -0.5805     -0.5756     -0.5613     -0.5383     -0.5079    
      -0.4714     -0.4304     -0.3861     -0.3396     -0.2917     -0.2432     -0.1944     -0.1456     -9.6981E-02 -4.8449E-02
        0.000    
  28    0.000     -3.6366E-02 -7.2764E-02 -0.1092     -0.1456     -0.1820     -0.2180     -0.2533     -0.2874     -0.3197    
      -0.3495     -0.3757     -0.3975     -0.4138     -0.4240     -0.4274     -0.4240     -0.4138     -0.3975     -0.3757    
      -0.3495     -0.3197     -0.2874     -0.2533     -0.2180     -0.1820     -0.1456     -0.1092     -7.2764E-02 -3.6366E-02
        0.000    
  29    0.000     -2.4249E-02 -4.8507E-02 -7.2764E-02 -9.6981E-02 -0.1211     -0.1449     -0.1681     -0.1905     -0.2117    
      -0.2310     -0.2480     -0.2620     -0.2726     -0.2791     -0.2813     -0.2791     -0.2726     -0.2620     -0.2480    
      -0.2310     -0.2117     -0.1905     -0.1681     -0.1449     -0.1211     -9.6981E-02 -7.2764E-02 -4.8507E-02 -2.4249E-02
        0.000    
  30    0.000     -1.2125E-02 -2.4249E-02 -3.6366E-02 -4.8449E-02 -6.0450E-02 -7.2286E-02 -8.3837E-02 -9.4938E-02 -0.1054    
      -0.1149     -0.1233     -0.1302     -0.1353     -0.1385     -0.1396     -0.1385     -0.1353     -0.1302     -0.1233    
      -0.1149     -0.1054     -9.4938E-02 -8.3837E-02 -7.2286E-02 -6.0450E-02 -4.8449E-02 -3.6366E-02 -2.4249E-02 -1.2125E-02
        0.000    
  31    0.000       0.000       0.000       0.000       0.000       0.000       0.000       0.000       0.000       0.000    
        0.000       0.000       0.000       0.000       0.000       0.000       0.000       0.000       0.000       0.000    
        0.000       0.000       0.000       0.000       0.000       0.000       0.000       0.000       0.000       0.000    
        0.000    
1
  VOLUMETRIC BUDGET FOR ENTIRE MODEL AT END OF TIME STEP 1095, STRESS PERIOD   2
  ------------------------------------------------------------------------------

     CUMULATIVE VOLUMES      L**3       RATES FOR THIS TIME STEP      L**3/T
     ------------------                 ------------------------

           IN:                                      IN:
           ---                                      ---
             STORAGE =           0.0000               STORAGE =           0.0000
       CONSTANT HEAD =   236520000.0000         CONSTANT HEAD =       86400.0000
               WELLS =    78840000.0000                 WELLS =           0.0000

            TOTAL IN =   315360000.0000              TOTAL IN =       86400.0000

          OUT:                                     OUT:
          ----                                     ----
             STORAGE =           0.0000               STORAGE =           0.0000
       CONSTANT HEAD =    78840000.0000         CONSTANT HEAD =           0.0000
               WELLS =   236520000.0000                 WELLS =       86400.0000

           TOTAL OUT =   315360000.0000             TOTAL OUT =       86400.0000

            IN - OUT =           0.0000              IN - OUT =           0.0000

 PERCENT DISCREPANCY =           0.00     PERCENT DISCREPANCY =           0.00






         TIME SUMMARY AT END OF TIME STEP 1095 IN STRESS PERIOD    2
                    SECONDS     MINUTES      HOURS       DAYS        YEARS
                    -----------------------------------------------------------
   TIME STEP LENGTH 2.16000E+05  3600.0      60.000      2.5000     6.84463E-03
 STRESS PERIOD TIME 2.36520E+08 3.94200E+06  65700.      2737.5      7.4949    
         TOTAL TIME 3.15360E+08 5.25600E+06  87600.      3650.0      9.9932    
1

 Run end date and time (yyyy/mm/dd hh:mm:ss): 2025/03/11 10:35:52
 Elapsed run time:  1.005 Seconds

