                                   MODFLOW 6
                U.S. GEOLOGICAL SURVEY MODULAR HYDROLOGIC MODEL
                          GROUNDWATER FLOW MODEL (GWF)
                            VERSION 6.6.1 02/10/2025

   MODFLOW 6 compiled Feb 14 2025 13:40:10 with Intel(R) Fortran Intel(R) 64
   Compiler Classic for applications running on Intel(R) 64, Version 2021.7.0
                             Build 20220726_000000

This software has been approved for release by the U.S. Geological 
Survey (USGS). Although the software has been subjected to rigorous 
review, the USGS reserves the right to update the software as needed 
pursuant to further analysis and review. No warranty, expressed or 
implied, is made by the USGS or the U.S. Government as to the 
functionality of the software and related material nor shall the 
fact of release constitute any such warranty. Furthermore, the 
software is released on condition that neither the USGS nor the U.S. 
Government shall be held liable for any damages resulting from its 
authorized or unauthorized use. Also refer to the USGS Water 
Resources Software User Rights Notice for complete use, copyright, 
and distribution information.


As a work of the United States Government, this USGS product is 
in the public domain within the United States. You can copy, 
modify, distribute, and perform the work, even for commercial 
purposes, all without asking permission. Additionally, USGS 
waives copyright and related rights in the work worldwide 
through CC0 1.0 Universal Public Domain Dedication 
(https://creativecommons.org/publicdomain/zero/1.0/).

The following GNU Lesser General Public License (LGPL) libraries
are used in this USGS product:

    SPARSKIT version 2.0
      ilut, luson, and qsplit 
      (https://www-users.cse.umn.edu/~saad/software/SPARSKIT/)

    RCM - Reverse Cuthill McKee Ordering
      (https://people.math.sc.edu/Burkardt/f_src/rcm/rcm.html)

    BLAS - Basic Linear Algebra Subprograms Level 1
      (https://people.math.sc.edu/Burkardt/f_src/blas1_d/blas1_d.html)

    SPARSEKIT - Sparse Matrix Utility Package
      amux, dperm, dvperm, rperm, and cperm
      (https://people.sc.fsu.edu/~jburkardt/f77_src/sparsekit/sparsekit.html)

The following BSD-3 License libraries are used in this USGS product:

    Modern Fortran DAG Library
      Copyright (c) 2018, Jacob Williams
      All rights reserved.
      (https://github.com/jacobwilliams/daglib)

MODFLOW 6 compiler options: /O2 /heap-arrays:0 /fpe:0 /traceback /nologo /fpp
/c /module:win64\mod_mf6\ /object:win64\obj_mf6\

System command used to initiate simulation:
C:\Users\gross.DESKTOP-AIRQM2M\anaconda3\Scripts\mf6.exe

MODFLOW was compiled using uniform precision.

Real Variables
  KIND: 8
  TINY (smallest non-zero value):    2.225074-308
  HUGE (largest value):    1.797693+308
  PRECISION: 15
  SIZE IN BITS: 64

Integer Variables
  KIND: 4
  HUGE (largest value): 2147483647
  SIZE IN BITS: 32

Long Integer Variables
  KIND: 8
  HUGE (largest value): 9223372036854775807
  SIZE IN BITS: 64

Logical Variables
  KIND: 4
  SIZE IN BITS: 32
 
 NAMEFILE OPTIONS:
 END NAMEFILE OPTIONS:

 DIS -- STRUCTURED GRID DISCRETIZATION PACKAGE, VERSION 2 : 3/27/2014 - INPUT READ FROM MEMPATH: __INPUT__/08_P02/DIS                              


 NPF -- NODE PROPERTY FLOW PACKAGE, VERSION 1, 3/30/2015 INPUT READ FROM MEMPATH: __INPUT__/08_P02/NPF                              


 IC -- Initial Conditions Package, Version 8, 3/28/2015 input read from mempath: __INPUT__/08_P02/IC                               


 Setting Discretization Options
    Model length unit [0=UND, 1=FEET, 2=METERS, 3=CENTIMETERS] set as 1
 End Setting Discretization Options

 Setting Discretization Dimensions
    NLAY = 14
    NROW = 40
    NCOL = 40
 End Setting Discretization Dimensions

 Setting Discretization Griddata
    DELR set from input file
    DELC set from input file
    TOP set from input file
    BOTM set from input file
 End Setting Discretization Griddata

 Setting NPF Options
    Rewetting is active.
    Wetting factor (WETFCT) has been set to:    0.500000    
    Wetting iteration interval (IWETIT) has been set to:     1
    Head rewet equation (IHDWET) has been set to:     1
 End Setting NPF Options

 Setting NPF Griddata
    ICELLTYPE set from input file
    K set from input file
    K33 set from input file
    K22 not provided.  Setting K22 = K.
    WETDRY set from input file
 End Setting NPF Griddata


 RCH   -- RCH PACKAGE, VERSION 8, 2/22/2014 INPUT READ FROM MEMPATH: __INPUT__/08_P02/RCH_0                            

 PROCESSING RCH BASE OPTIONS
 END OF RCH BASE OPTIONS

 PROCESSING RCH OPTIONS
 END OF RCH OPTIONS

 PROCESSING RCH BASE DIMENSIONS
    MAXBOUND =       4
 END OF RCH BASE DIMENSIONS

 CHD   -- CHD PACKAGE, VERSION 8, 2/22/2014 INPUT READ FROM MEMPATH: __INPUT__/08_P02/CHD_0                            

 PROCESSING CHD BASE OPTIONS
 END OF CHD BASE OPTIONS

 PROCESSING CHD BASE DIMENSIONS
    MAXBOUND =     395
 END OF CHD BASE DIMENSIONS
    STRT set from input file

 CELL CONVERSIONS FOR ITER.=0  STEP=0  PERIOD=0   (NODE or LRC)
     DRY             (1,1,1) DRY             (1,1,2) DRY             (1,1,3) DRY             (1,1,4) DRY             (1,1,5)
     DRY             (1,1,6) DRY             (1,1,7) DRY             (1,1,8) DRY             (1,1,9) DRY            (1,1,10)
     DRY            (1,1,11) DRY            (1,1,12) DRY            (1,1,13) DRY            (1,1,14) DRY            (1,1,15)
     DRY            (1,1,16) DRY            (1,1,17) DRY            (1,1,18) DRY            (1,1,19) DRY            (1,1,20)
     DRY            (1,1,21) DRY            (1,1,22) DRY            (1,1,23) DRY            (1,1,24) DRY            (1,1,25)
     DRY            (1,1,26) DRY            (1,1,27) DRY            (1,1,28) DRY            (1,1,29) DRY            (1,1,30)
     DRY            (1,1,31) DRY            (1,1,32) DRY            (1,1,33) DRY            (1,1,34) DRY            (1,1,35)
     DRY            (1,1,36) DRY            (1,1,37) DRY            (1,1,38) DRY            (1,1,39) DRY            (1,1,40)
     DRY             (1,2,1) DRY             (1,2,2) DRY             (1,2,3) DRY             (1,2,4) DRY             (1,2,5)
     DRY             (1,2,6) DRY             (1,2,7) DRY             (1,2,8) DRY             (1,2,9) DRY            (1,2,10)
     DRY            (1,2,11) DRY            (1,2,12) DRY            (1,2,13) DRY            (1,2,14) DRY            (1,2,15)
     DRY            (1,2,16) DRY            (1,2,17) DRY            (1,2,18) DRY            (1,2,19) DRY            (1,2,20)
     DRY            (1,2,21) DRY            (1,2,22) DRY            (1,2,23) DRY            (1,2,24) DRY            (1,2,25)
     DRY            (1,2,26) DRY            (1,2,27) DRY            (1,2,28) DRY            (1,2,29) DRY            (1,2,30)
     DRY            (1,2,31) DRY            (1,2,32) DRY            (1,2,33) DRY            (1,2,34) DRY            (1,2,35)
     DRY            (1,2,36) DRY            (1,2,37) DRY            (1,2,38) DRY            (1,2,39) DRY            (1,2,40)
     DRY             (1,3,1) DRY             (1,3,2) DRY             (1,3,3) DRY             (1,3,4) DRY             (1,3,5)
     DRY             (1,3,6) DRY             (1,3,7) DRY             (1,3,8) DRY             (1,3,9) DRY            (1,3,10)
     DRY            (1,3,11) DRY            (1,3,12) DRY            (1,3,13) DRY            (1,3,14) DRY            (1,3,15)
     DRY            (1,3,16) DRY            (1,3,17) DRY            (1,3,18) DRY            (1,3,19) DRY            (1,3,20)
     DRY            (1,3,21) DRY            (1,3,22) DRY            (1,3,23) DRY            (1,3,24) DRY            (1,3,25)
     DRY            (1,3,26) DRY            (1,3,27) DRY            (1,3,28) DRY            (1,3,29) DRY            (1,3,30)
     DRY            (1,3,31) DRY            (1,3,32) DRY            (1,3,33) DRY            (1,3,34) DRY            (1,3,35)
     DRY            (1,3,36) DRY            (1,3,37) DRY            (1,3,38) DRY            (1,3,39) DRY            (1,3,40)
     DRY             (1,4,1) DRY             (1,4,2) DRY             (1,4,3) DRY             (1,4,4) DRY             (1,4,5)
     DRY             (1,4,6) DRY             (1,4,7) DRY             (1,4,8) DRY             (1,4,9) DRY            (1,4,10)
     DRY            (1,4,11) DRY            (1,4,12) DRY            (1,4,13) DRY            (1,4,14) DRY            (1,4,15)
     DRY            (1,4,16) DRY            (1,4,17) DRY            (1,4,18) DRY            (1,4,19) DRY            (1,4,20)
     DRY            (1,4,21) DRY            (1,4,22) DRY            (1,4,23) DRY            (1,4,24) DRY            (1,4,25)
     DRY            (1,4,26) DRY            (1,4,27) DRY            (1,4,28) DRY            (1,4,29) DRY            (1,4,30)
     DRY            (1,4,31) DRY            (1,4,32) DRY            (1,4,33) DRY            (1,4,34) DRY            (1,4,35)
     DRY            (1,4,36) DRY            (1,4,37) DRY            (1,4,38) DRY            (1,4,39) DRY            (1,4,40)
     DRY             (1,5,1) DRY             (1,5,2) DRY             (1,5,3) DRY             (1,5,4) DRY             (1,5,5)
     DRY             (1,5,6) DRY             (1,5,7) DRY             (1,5,8) DRY             (1,5,9) DRY            (1,5,10)
     DRY            (1,5,11) DRY            (1,5,12) DRY            (1,5,13) DRY            (1,5,14) DRY            (1,5,15)
     DRY            (1,5,16) DRY            (1,5,17) DRY            (1,5,18) DRY            (1,5,19) DRY            (1,5,20)
     DRY            (1,5,21) DRY            (1,5,22) DRY            (1,5,23) DRY            (1,5,24) DRY            (1,5,25)
     DRY            (1,5,26) DRY            (1,5,27) DRY            (1,5,28) DRY            (1,5,29) DRY            (1,5,30)
     DRY            (1,5,31) DRY            (1,5,32) DRY            (1,5,33) DRY            (1,5,34) DRY            (1,5,35)
     DRY            (1,5,36) DRY            (1,5,37) DRY            (1,5,38) DRY            (1,5,39) DRY            (1,5,40)
     DRY             (1,6,1) DRY             (1,6,2) DRY             (1,6,3) DRY             (1,6,4) DRY             (1,6,5)
     DRY             (1,6,6) DRY             (1,6,7) DRY             (1,6,8) DRY             (1,6,9) DRY            (1,6,10)
     DRY            (1,6,11) DRY            (1,6,12) DRY            (1,6,13) DRY            (1,6,14) DRY            (1,6,15)
     DRY            (1,6,16) DRY            (1,6,17) DRY            (1,6,18) DRY            (1,6,19) DRY            (1,6,20)
     DRY            (1,6,21) DRY            (1,6,22) DRY            (1,6,23) DRY            (1,6,24) DRY            (1,6,25)
     DRY            (1,6,26) DRY            (1,6,27) DRY            (1,6,28) DRY            (1,6,29) DRY            (1,6,30)
     DRY            (1,6,31) DRY            (1,6,32) DRY            (1,6,33) DRY            (1,6,34) DRY            (1,6,35)
     DRY            (1,6,36) DRY            (1,6,37) DRY            (1,6,38) DRY            (1,6,39) DRY            (1,6,40)
     DRY             (1,7,1) DRY             (1,7,2) DRY             (1,7,3) DRY             (1,7,4) DRY             (1,7,5)
     DRY             (1,7,6) DRY             (1,7,7) DRY             (1,7,8) DRY             (1,7,9) DRY            (1,7,10)
     DRY            (1,7,11) DRY            (1,7,12) DRY            (1,7,13) DRY            (1,7,14) DRY            (1,7,15)
     DRY            (1,7,16) DRY            (1,7,17) DRY            (1,7,18) DRY            (1,7,19) DRY            (1,7,20)
     DRY            (1,7,21) DRY            (1,7,22) DRY            (1,7,23) DRY            (1,7,24) DRY            (1,7,25)
     DRY            (1,7,26) DRY            (1,7,27) DRY            (1,7,28) DRY            (1,7,29) DRY            (1,7,30)
     DRY            (1,7,31) DRY            (1,7,32) DRY            (1,7,33) DRY            (1,7,34) DRY            (1,7,35)
     DRY            (1,7,36) DRY            (1,7,37) DRY            (1,7,38) DRY            (1,7,39) DRY            (1,7,40)
     DRY             (1,8,1) DRY             (1,8,2) DRY             (1,8,3) DRY             (1,8,4) DRY             (1,8,5)
     DRY             (1,8,6) DRY             (1,8,7) DRY             (1,8,8) DRY             (1,8,9) DRY            (1,8,10)
     DRY            (1,8,11) DRY            (1,8,12) DRY            (1,8,13) DRY            (1,8,14) DRY            (1,8,15)
     DRY            (1,8,16) DRY            (1,8,17) DRY            (1,8,18) DRY            (1,8,19) DRY            (1,8,20)
     DRY            (1,8,21) DRY            (1,8,22) DRY            (1,8,23) DRY            (1,8,24) DRY            (1,8,25)
     DRY            (1,8,26) DRY            (1,8,27) DRY            (1,8,28) DRY            (1,8,29) DRY            (1,8,30)
     DRY            (1,8,31) DRY            (1,8,32) DRY            (1,8,33) DRY            (1,8,34) DRY            (1,8,35)
     DRY            (1,8,36) DRY            (1,8,37) DRY            (1,8,38) DRY            (1,8,39) DRY            (1,8,40)
     DRY             (1,9,1) DRY             (1,9,2) DRY             (1,9,3) DRY             (1,9,4) DRY             (1,9,5)
     DRY             (1,9,6) DRY             (1,9,7) DRY             (1,9,8) DRY             (1,9,9) DRY            (1,9,10)
     DRY            (1,9,11) DRY            (1,9,12) DRY            (1,9,13) DRY            (1,9,14) DRY            (1,9,15)
     DRY            (1,9,16) DRY            (1,9,17) DRY            (1,9,18) DRY            (1,9,19) DRY            (1,9,20)
     DRY            (1,9,21) DRY            (1,9,22) DRY            (1,9,23) DRY            (1,9,24) DRY            (1,9,25)
     DRY            (1,9,26) DRY            (1,9,27) DRY            (1,9,28) DRY            (1,9,29) DRY            (1,9,30)
     DRY            (1,9,31) DRY            (1,9,32) DRY            (1,9,33) DRY            (1,9,34) DRY            (1,9,35)
     DRY            (1,9,36) DRY            (1,9,37) DRY            (1,9,38) DRY            (1,9,39) DRY            (1,9,40)
     DRY            (1,10,1) DRY            (1,10,2) DRY            (1,10,3) DRY            (1,10,4) DRY            (1,10,5)
     DRY            (1,10,6) DRY            (1,10,7) DRY            (1,10,8) DRY            (1,10,9) DRY           (1,10,10)
     DRY           (1,10,11) DRY           (1,10,12) DRY           (1,10,13) DRY           (1,10,14) DRY           (1,10,15)
     DRY           (1,10,16) DRY           (1,10,17) DRY           (1,10,18) DRY           (1,10,19) DRY           (1,10,20)
     DRY           (1,10,21) DRY           (1,10,22) DRY           (1,10,23) DRY           (1,10,24) DRY           (1,10,25)
     DRY           (1,10,26) DRY           (1,10,27) DRY           (1,10,28) DRY           (1,10,29) DRY           (1,10,30)
     DRY           (1,10,31) DRY           (1,10,32) DRY           (1,10,33) DRY           (1,10,34) DRY           (1,10,35)
     DRY           (1,10,36) DRY           (1,10,37) DRY           (1,10,38) DRY           (1,10,39) DRY           (1,10,40)
     DRY            (1,11,1) DRY            (1,11,2) DRY            (1,11,3) DRY            (1,11,4) DRY            (1,11,5)
     DRY            (1,11,6) DRY            (1,11,7) DRY            (1,11,8) DRY            (1,11,9) DRY           (1,11,10)
     DRY           (1,11,11) DRY           (1,11,12) DRY           (1,11,13) DRY           (1,11,14) DRY           (1,11,15)
     DRY           (1,11,16) DRY           (1,11,17) DRY           (1,11,18) DRY           (1,11,19) DRY           (1,11,20)
     DRY           (1,11,21) DRY           (1,11,22) DRY           (1,11,23) DRY           (1,11,24) DRY           (1,11,25)
     DRY           (1,11,26) DRY           (1,11,27) DRY           (1,11,28) DRY           (1,11,29) DRY           (1,11,30)
     DRY           (1,11,31) DRY           (1,11,32) DRY           (1,11,33) DRY           (1,11,34) DRY           (1,11,35)
     DRY           (1,11,36) DRY           (1,11,37) DRY           (1,11,38) DRY           (1,11,39) DRY           (1,11,40)
     DRY            (1,12,1) DRY            (1,12,2) DRY            (1,12,3) DRY            (1,12,4) DRY            (1,12,5)
     DRY            (1,12,6) DRY            (1,12,7) DRY            (1,12,8) DRY            (1,12,9) DRY           (1,12,10)
     DRY           (1,12,11) DRY           (1,12,12) DRY           (1,12,13) DRY           (1,12,14) DRY           (1,12,15)
     DRY           (1,12,16) DRY           (1,12,17) DRY           (1,12,18) DRY           (1,12,19) DRY           (1,12,20)
     DRY           (1,12,21) DRY           (1,12,22) DRY           (1,12,23) DRY           (1,12,24) DRY           (1,12,25)
     DRY           (1,12,26) DRY           (1,12,27) DRY           (1,12,28) DRY           (1,12,29) DRY           (1,12,30)
     DRY           (1,12,31) DRY           (1,12,32) DRY           (1,12,33) DRY           (1,12,34) DRY           (1,12,35)
     DRY           (1,12,36) DRY           (1,12,37) DRY           (1,12,38) DRY           (1,12,39) DRY           (1,12,40)
     DRY            (1,13,1) DRY            (1,13,2) DRY            (1,13,3) DRY            (1,13,4) DRY            (1,13,5)
     DRY            (1,13,6) DRY            (1,13,7) DRY            (1,13,8) DRY            (1,13,9) DRY           (1,13,10)
     DRY           (1,13,11) DRY           (1,13,12) DRY           (1,13,13) DRY           (1,13,14) DRY           (1,13,15)
     DRY           (1,13,16) DRY           (1,13,17) DRY           (1,13,18) DRY           (1,13,19) DRY           (1,13,20)
     DRY           (1,13,21) DRY           (1,13,22) DRY           (1,13,23) DRY           (1,13,24) DRY           (1,13,25)
     DRY           (1,13,26) DRY           (1,13,27) DRY           (1,13,28) DRY           (1,13,29) DRY           (1,13,30)
     DRY           (1,13,31) DRY           (1,13,32) DRY           (1,13,33) DRY           (1,13,34) DRY           (1,13,35)
     DRY           (1,13,36) DRY           (1,13,37) DRY           (1,13,38) DRY           (1,13,39) DRY           (1,13,40)
     DRY            (1,14,1) DRY            (1,14,2) DRY            (1,14,3) DRY            (1,14,4) DRY            (1,14,5)
     DRY            (1,14,6) DRY            (1,14,7) DRY            (1,14,8) DRY            (1,14,9) DRY           (1,14,10)
     DRY           (1,14,11) DRY           (1,14,12) DRY           (1,14,13) DRY           (1,14,14) DRY           (1,14,15)
     DRY           (1,14,16) DRY           (1,14,17) DRY           (1,14,18) DRY           (1,14,19) DRY           (1,14,20)
     DRY           (1,14,21) DRY           (1,14,22) DRY           (1,14,23) DRY           (1,14,24) DRY           (1,14,25)
     DRY           (1,14,26) DRY           (1,14,27) DRY           (1,14,28) DRY           (1,14,29) DRY           (1,14,30)
     DRY           (1,14,31) DRY           (1,14,32) DRY           (1,14,33) DRY           (1,14,34) DRY           (1,14,35)
     DRY           (1,14,36) DRY           (1,14,37) DRY           (1,14,38) DRY           (1,14,39) DRY           (1,14,40)
     DRY            (1,15,1) DRY            (1,15,2) DRY            (1,15,3) DRY            (1,15,4) DRY            (1,15,5)
     DRY            (1,15,6) DRY            (1,15,7) DRY            (1,15,8) DRY            (1,15,9) DRY           (1,15,10)
     DRY           (1,15,11) DRY           (1,15,12) DRY           (1,15,13) DRY           (1,15,14) DRY           (1,15,15)
     DRY           (1,15,16) DRY           (1,15,17) DRY           (1,15,18) DRY           (1,15,19) DRY           (1,15,20)
     DRY           (1,15,21) DRY           (1,15,22) DRY           (1,15,23) DRY           (1,15,24) DRY           (1,15,25)
     DRY           (1,15,26) DRY           (1,15,27) DRY           (1,15,28) DRY           (1,15,29) DRY           (1,15,30)
     DRY           (1,15,31) DRY           (1,15,32) DRY           (1,15,33) DRY           (1,15,34) DRY           (1,15,35)
     DRY           (1,15,36) DRY           (1,15,37) DRY           (1,15,38) DRY           (1,15,39) DRY           (1,15,40)
     DRY            (1,16,1) DRY            (1,16,2) DRY            (1,16,3) DRY            (1,16,4) DRY            (1,16,5)
     DRY            (1,16,6) DRY            (1,16,7) DRY            (1,16,8) DRY            (1,16,9) DRY           (1,16,10)
     DRY           (1,16,11) DRY           (1,16,12) DRY           (1,16,13) DRY           (1,16,14) DRY           (1,16,15)
     DRY           (1,16,16) DRY           (1,16,17) DRY           (1,16,18) DRY           (1,16,19) DRY           (1,16,20)
     DRY           (1,16,21) DRY           (1,16,22) DRY           (1,16,23) DRY           (1,16,24) DRY           (1,16,25)
     DRY           (1,16,26) DRY           (1,16,27) DRY           (1,16,28) DRY           (1,16,29) DRY           (1,16,30)
     DRY           (1,16,31) DRY           (1,16,32) DRY           (1,16,33) DRY           (1,16,34) DRY           (1,16,35)
     DRY           (1,16,36) DRY           (1,16,37) DRY           (1,16,38) DRY           (1,16,39) DRY           (1,16,40)
     DRY            (1,17,1) DRY            (1,17,2) DRY            (1,17,3) DRY            (1,17,4) DRY            (1,17,5)
     DRY            (1,17,6) DRY            (1,17,7) DRY            (1,17,8) DRY            (1,17,9) DRY           (1,17,10)
     DRY           (1,17,11) DRY           (1,17,12) DRY           (1,17,13) DRY           (1,17,14) DRY           (1,17,15)
     DRY           (1,17,16) DRY           (1,17,17) DRY           (1,17,18) DRY           (1,17,19) DRY           (1,17,20)
     DRY           (1,17,21) DRY           (1,17,22) DRY           (1,17,23) DRY           (1,17,24) DRY           (1,17,25)
     DRY           (1,17,26) DRY           (1,17,27) DRY           (1,17,28) DRY           (1,17,29) DRY           (1,17,30)
     DRY           (1,17,31) DRY           (1,17,32) DRY           (1,17,33) DRY           (1,17,34) DRY           (1,17,35)
     DRY           (1,17,36) DRY           (1,17,37) DRY           (1,17,38) DRY           (1,17,39) DRY           (1,17,40)
     DRY            (1,18,1) DRY            (1,18,2) DRY            (1,18,3) DRY            (1,18,4) DRY            (1,18,5)
     DRY            (1,18,6) DRY            (1,18,7) DRY            (1,18,8) DRY            (1,18,9) DRY           (1,18,10)
     DRY           (1,18,11) DRY           (1,18,12) DRY           (1,18,13) DRY           (1,18,14) DRY           (1,18,15)
     DRY           (1,18,16) DRY           (1,18,17) DRY           (1,18,18) DRY           (1,18,19) DRY           (1,18,20)
     DRY           (1,18,21) DRY           (1,18,22) DRY           (1,18,23) DRY           (1,18,24) DRY           (1,18,25)
     DRY           (1,18,26) DRY           (1,18,27) DRY           (1,18,28) DRY           (1,18,29) DRY           (1,18,30)
     DRY           (1,18,31) DRY           (1,18,32) DRY           (1,18,33) DRY           (1,18,34) DRY           (1,18,35)
     DRY           (1,18,36) DRY           (1,18,37) DRY           (1,18,38) DRY           (1,18,39) DRY           (1,18,40)
     DRY            (1,19,1) DRY            (1,19,2) DRY            (1,19,3) DRY            (1,19,4) DRY            (1,19,5)
     DRY            (1,19,6) DRY            (1,19,7) DRY            (1,19,8) DRY            (1,19,9) DRY           (1,19,10)
     DRY           (1,19,11) DRY           (1,19,12) DRY           (1,19,13) DRY           (1,19,14) DRY           (1,19,15)
     DRY           (1,19,16) DRY           (1,19,17) DRY           (1,19,18) DRY           (1,19,19) DRY           (1,19,20)
     DRY           (1,19,21) DRY           (1,19,22) DRY           (1,19,23) DRY           (1,19,24) DRY           (1,19,25)
     DRY           (1,19,26) DRY           (1,19,27) DRY           (1,19,28) DRY           (1,19,29) DRY           (1,19,30)
     DRY           (1,19,31) DRY           (1,19,32) DRY           (1,19,33) DRY           (1,19,34) DRY           (1,19,35)
     DRY           (1,19,36) DRY           (1,19,37) DRY           (1,19,38) DRY           (1,19,39) DRY           (1,19,40)
     DRY            (1,20,1) DRY            (1,20,2) DRY            (1,20,3) DRY            (1,20,4) DRY            (1,20,5)
     DRY            (1,20,6) DRY            (1,20,7) DRY            (1,20,8) DRY            (1,20,9) DRY           (1,20,10)
     DRY           (1,20,11) DRY           (1,20,12) DRY           (1,20,13) DRY           (1,20,14) DRY           (1,20,15)
     DRY           (1,20,16) DRY           (1,20,17) DRY           (1,20,18) DRY           (1,20,19) DRY           (1,20,20)
     DRY           (1,20,21) DRY           (1,20,22) DRY           (1,20,23) DRY           (1,20,24) DRY           (1,20,25)
     DRY           (1,20,26) DRY           (1,20,27) DRY           (1,20,28) DRY           (1,20,29) DRY           (1,20,30)
     DRY           (1,20,31) DRY           (1,20,32) DRY           (1,20,33) DRY           (1,20,34) DRY           (1,20,35)
     DRY           (1,20,36) DRY           (1,20,37) DRY           (1,20,38) DRY           (1,20,39) DRY           (1,20,40)
     DRY            (1,21,1) DRY            (1,21,2) DRY            (1,21,3) DRY            (1,21,4) DRY            (1,21,5)
     DRY            (1,21,6) DRY            (1,21,7) DRY            (1,21,8) DRY            (1,21,9) DRY           (1,21,10)
     DRY           (1,21,11) DRY           (1,21,12) DRY           (1,21,13) DRY           (1,21,14) DRY           (1,21,15)
     DRY           (1,21,16) DRY           (1,21,17) DRY           (1,21,18) DRY           (1,21,19) DRY           (1,21,20)
     DRY           (1,21,21) DRY           (1,21,22) DRY           (1,21,23) DRY           (1,21,24) DRY           (1,21,25)
     DRY           (1,21,26) DRY           (1,21,27) DRY           (1,21,28) DRY           (1,21,29) DRY           (1,21,30)
     DRY           (1,21,31) DRY           (1,21,32) DRY           (1,21,33) DRY           (1,21,34) DRY           (1,21,35)
     DRY           (1,21,36) DRY           (1,21,37) DRY           (1,21,38) DRY           (1,21,39) DRY           (1,21,40)
     DRY            (1,22,1) DRY            (1,22,2) DRY            (1,22,3) DRY            (1,22,4) DRY            (1,22,5)
     DRY            (1,22,6) DRY            (1,22,7) DRY            (1,22,8) DRY            (1,22,9) DRY           (1,22,10)
     DRY           (1,22,11) DRY           (1,22,12) DRY           (1,22,13) DRY           (1,22,14) DRY           (1,22,15)
     DRY           (1,22,16) DRY           (1,22,17) DRY           (1,22,18) DRY           (1,22,19) DRY           (1,22,20)
     DRY           (1,22,21) DRY           (1,22,22) DRY           (1,22,23) DRY           (1,22,24) DRY           (1,22,25)
     DRY           (1,22,26) DRY           (1,22,27) DRY           (1,22,28) DRY           (1,22,29) DRY           (1,22,30)
     DRY           (1,22,31) DRY           (1,22,32) DRY           (1,22,33) DRY           (1,22,34) DRY           (1,22,35)
     DRY           (1,22,36) DRY           (1,22,37) DRY           (1,22,38) DRY           (1,22,39) DRY           (1,22,40)
     DRY            (1,23,1) DRY            (1,23,2) DRY            (1,23,3) DRY            (1,23,4) DRY            (1,23,5)
     DRY            (1,23,6) DRY            (1,23,7) DRY            (1,23,8) DRY            (1,23,9) DRY           (1,23,10)
     DRY           (1,23,11) DRY           (1,23,12) DRY           (1,23,13) DRY           (1,23,14) DRY           (1,23,15)
     DRY           (1,23,16) DRY           (1,23,17) DRY           (1,23,18) DRY           (1,23,19) DRY           (1,23,20)
     DRY           (1,23,21) DRY           (1,23,22) DRY           (1,23,23) DRY           (1,23,24) DRY           (1,23,25)
     DRY           (1,23,26) DRY           (1,23,27) DRY           (1,23,28) DRY           (1,23,29) DRY           (1,23,30)
     DRY           (1,23,31) DRY           (1,23,32) DRY           (1,23,33) DRY           (1,23,34) DRY           (1,23,35)
     DRY           (1,23,36) DRY           (1,23,37) DRY           (1,23,38) DRY           (1,23,39) DRY           (1,23,40)
     DRY            (1,24,1) DRY            (1,24,2) DRY            (1,24,3) DRY            (1,24,4) DRY            (1,24,5)
     DRY            (1,24,6) DRY            (1,24,7) DRY            (1,24,8) DRY            (1,24,9) DRY           (1,24,10)
     DRY           (1,24,11) DRY           (1,24,12) DRY           (1,24,13) DRY           (1,24,14) DRY           (1,24,15)
     DRY           (1,24,16) DRY           (1,24,17) DRY           (1,24,18) DRY           (1,24,19) DRY           (1,24,20)
     DRY           (1,24,21) DRY           (1,24,22) DRY           (1,24,23) DRY           (1,24,24) DRY           (1,24,25)
     DRY           (1,24,26) DRY           (1,24,27) DRY           (1,24,28) DRY           (1,24,29) DRY           (1,24,30)
     DRY           (1,24,31) DRY           (1,24,32) DRY           (1,24,33) DRY           (1,24,34) DRY           (1,24,35)
     DRY           (1,24,36) DRY           (1,24,37) DRY           (1,24,38) DRY           (1,24,39) DRY           (1,24,40)
     DRY            (1,25,1) DRY            (1,25,2) DRY            (1,25,3) DRY            (1,25,4) DRY            (1,25,5)
     DRY            (1,25,6) DRY            (1,25,7) DRY            (1,25,8) DRY            (1,25,9) DRY           (1,25,10)
     DRY           (1,25,11) DRY           (1,25,12) DRY           (1,25,13) DRY           (1,25,14) DRY           (1,25,15)
     DRY           (1,25,16) DRY           (1,25,17) DRY           (1,25,18) DRY           (1,25,19) DRY           (1,25,20)
     DRY           (1,25,21) DRY           (1,25,22) DRY           (1,25,23) DRY           (1,25,24) DRY           (1,25,25)
     DRY           (1,25,26) DRY           (1,25,27) DRY           (1,25,28) DRY           (1,25,29) DRY           (1,25,30)
     DRY           (1,25,31) DRY           (1,25,32) DRY           (1,25,33) DRY           (1,25,34) DRY           (1,25,35)
     DRY           (1,25,36) DRY           (1,25,37) DRY           (1,25,38) DRY           (1,25,39) DRY           (1,25,40)
     DRY            (1,26,1) DRY            (1,26,2) DRY            (1,26,3) DRY            (1,26,4) DRY            (1,26,5)
     DRY            (1,26,6) DRY            (1,26,7) DRY            (1,26,8) DRY            (1,26,9) DRY           (1,26,10)
     DRY           (1,26,11) DRY           (1,26,12) DRY           (1,26,13) DRY           (1,26,14) DRY           (1,26,15)
     DRY           (1,26,16) DRY           (1,26,17) DRY           (1,26,18) DRY           (1,26,19) DRY           (1,26,20)
     DRY           (1,26,21) DRY           (1,26,22) DRY           (1,26,23) DRY           (1,26,24) DRY           (1,26,25)
     DRY           (1,26,26) DRY           (1,26,27) DRY           (1,26,28) DRY           (1,26,29) DRY           (1,26,30)
     DRY           (1,26,31) DRY           (1,26,32) DRY           (1,26,33) DRY           (1,26,34) DRY           (1,26,35)
     DRY           (1,26,36) DRY           (1,26,37) DRY           (1,26,38) DRY           (1,26,39) DRY           (1,26,40)
     DRY            (1,27,1) DRY            (1,27,2) DRY            (1,27,3) DRY            (1,27,4) DRY            (1,27,5)
     DRY            (1,27,6) DRY            (1,27,7) DRY            (1,27,8) DRY            (1,27,9) DRY           (1,27,10)
     DRY           (1,27,11) DRY           (1,27,12) DRY           (1,27,13) DRY           (1,27,14) DRY           (1,27,15)
     DRY           (1,27,16) DRY           (1,27,17) DRY           (1,27,18) DRY           (1,27,19) DRY           (1,27,20)
     DRY           (1,27,21) DRY           (1,27,22) DRY           (1,27,23) DRY           (1,27,24) DRY           (1,27,25)
     DRY           (1,27,26) DRY           (1,27,27) DRY           (1,27,28) DRY           (1,27,29) DRY           (1,27,30)
     DRY           (1,27,31) DRY           (1,27,32) DRY           (1,27,33) DRY           (1,27,34) DRY           (1,27,35)
     DRY           (1,27,36) DRY           (1,27,37) DRY           (1,27,38) DRY           (1,27,39) DRY           (1,27,40)
     DRY            (1,28,1) DRY            (1,28,2) DRY            (1,28,3) DRY            (1,28,4) DRY            (1,28,5)
     DRY            (1,28,6) DRY            (1,28,7) DRY            (1,28,8) DRY            (1,28,9) DRY           (1,28,10)
     DRY           (1,28,11) DRY           (1,28,12) DRY           (1,28,13) DRY           (1,28,14) DRY           (1,28,15)
     DRY           (1,28,16) DRY           (1,28,17) DRY           (1,28,18) DRY           (1,28,19) DRY           (1,28,20)
     DRY           (1,28,21) DRY           (1,28,22) DRY           (1,28,23) DRY           (1,28,24) DRY           (1,28,25)
     DRY           (1,28,26) DRY           (1,28,27) DRY           (1,28,28) DRY           (1,28,29) DRY           (1,28,30)
     DRY           (1,28,31) DRY           (1,28,32) DRY           (1,28,33) DRY           (1,28,34) DRY           (1,28,35)
     DRY           (1,28,36) DRY           (1,28,37) DRY           (1,28,38) DRY           (1,28,39) DRY           (1,28,40)
     DRY            (1,29,1) DRY            (1,29,2) DRY            (1,29,3) DRY            (1,29,4) DRY            (1,29,5)
     DRY            (1,29,6) DRY            (1,29,7) DRY            (1,29,8) DRY            (1,29,9) DRY           (1,29,10)
     DRY           (1,29,11) DRY           (1,29,12) DRY           (1,29,13) DRY           (1,29,14) DRY           (1,29,15)
     DRY           (1,29,16) DRY           (1,29,17) DRY           (1,29,18) DRY           (1,29,19) DRY           (1,29,20)
     DRY           (1,29,21) DRY           (1,29,22) DRY           (1,29,23) DRY           (1,29,24) DRY           (1,29,25)
     DRY           (1,29,26) DRY           (1,29,27) DRY           (1,29,28) DRY           (1,29,29) DRY           (1,29,30)
     DRY           (1,29,31) DRY           (1,29,32) DRY           (1,29,33) DRY           (1,29,34) DRY           (1,29,35)
     DRY           (1,29,36) DRY           (1,29,37) DRY           (1,29,38) DRY           (1,29,39) DRY           (1,29,40)
     DRY            (1,30,1) DRY            (1,30,2) DRY            (1,30,3) DRY            (1,30,4) DRY            (1,30,5)
     DRY            (1,30,6) DRY            (1,30,7) DRY            (1,30,8) DRY            (1,30,9) DRY           (1,30,10)
     DRY           (1,30,11) DRY           (1,30,12) DRY           (1,30,13) DRY           (1,30,14) DRY           (1,30,15)
     DRY           (1,30,16) DRY           (1,30,17) DRY           (1,30,18) DRY           (1,30,19) DRY           (1,30,20)
     DRY           (1,30,21) DRY           (1,30,22) DRY           (1,30,23) DRY           (1,30,24) DRY           (1,30,25)
     DRY           (1,30,26) DRY           (1,30,27) DRY           (1,30,28) DRY           (1,30,29) DRY           (1,30,30)
     DRY           (1,30,31) DRY           (1,30,32) DRY           (1,30,33) DRY           (1,30,34) DRY           (1,30,35)
     DRY           (1,30,36) DRY           (1,30,37) DRY           (1,30,38) DRY           (1,30,39) DRY           (1,30,40)
     DRY            (1,31,1) DRY            (1,31,2) DRY            (1,31,3) DRY            (1,31,4) DRY            (1,31,5)
     DRY            (1,31,6) DRY            (1,31,7) DRY            (1,31,8) DRY            (1,31,9) DRY           (1,31,10)
     DRY           (1,31,11) DRY           (1,31,12) DRY           (1,31,13) DRY           (1,31,14) DRY           (1,31,15)
     DRY           (1,31,16) DRY           (1,31,17) DRY           (1,31,18) DRY           (1,31,19) DRY           (1,31,20)
     DRY           (1,31,21) DRY           (1,31,22) DRY           (1,31,23) DRY           (1,31,24) DRY           (1,31,25)
     DRY           (1,31,26) DRY           (1,31,27) DRY           (1,31,28) DRY           (1,31,29) DRY           (1,31,30)
     DRY           (1,31,31) DRY           (1,31,32) DRY           (1,31,33) DRY           (1,31,34) DRY           (1,31,35)
     DRY           (1,31,36) DRY           (1,31,37) DRY           (1,31,38) DRY           (1,31,39) DRY           (1,31,40)
     DRY            (1,32,1) DRY            (1,32,2) DRY            (1,32,3) DRY            (1,32,4) DRY            (1,32,5)
     DRY            (1,32,6) DRY            (1,32,7) DRY            (1,32,8) DRY            (1,32,9) DRY           (1,32,10)
     DRY           (1,32,11) DRY           (1,32,12) DRY           (1,32,13) DRY           (1,32,14) DRY           (1,32,15)
     DRY           (1,32,16) DRY           (1,32,17) DRY           (1,32,18) DRY           (1,32,19) DRY           (1,32,20)
     DRY           (1,32,21) DRY           (1,32,22) DRY           (1,32,23) DRY           (1,32,24) DRY           (1,32,25)
     DRY           (1,32,26) DRY           (1,32,27) DRY           (1,32,28) DRY           (1,32,29) DRY           (1,32,30)
     DRY           (1,32,31) DRY           (1,32,32) DRY           (1,32,33) DRY           (1,32,34) DRY           (1,32,35)
     DRY           (1,32,36) DRY           (1,32,37) DRY           (1,32,38) DRY           (1,32,39) DRY           (1,32,40)
     DRY            (1,33,1) DRY            (1,33,2) DRY            (1,33,3) DRY            (1,33,4) DRY            (1,33,5)
     DRY            (1,33,6) DRY            (1,33,7) DRY            (1,33,8) DRY            (1,33,9) DRY           (1,33,10)
     DRY           (1,33,11) DRY           (1,33,12) DRY           (1,33,13) DRY           (1,33,14) DRY           (1,33,15)
     DRY           (1,33,16) DRY           (1,33,17) DRY           (1,33,18) DRY           (1,33,19) DRY           (1,33,20)
     DRY           (1,33,21) DRY           (1,33,22) DRY           (1,33,23) DRY           (1,33,24) DRY           (1,33,25)
     DRY           (1,33,26) DRY           (1,33,27) DRY           (1,33,28) DRY           (1,33,29) DRY           (1,33,30)
     DRY           (1,33,31) DRY           (1,33,32) DRY           (1,33,33) DRY           (1,33,34) DRY           (1,33,35)
     DRY           (1,33,36) DRY           (1,33,37) DRY           (1,33,38) DRY           (1,33,39) DRY           (1,33,40)
     DRY            (1,34,1) DRY            (1,34,2) DRY            (1,34,3) DRY            (1,34,4) DRY            (1,34,5)
     DRY            (1,34,6) DRY            (1,34,7) DRY            (1,34,8) DRY            (1,34,9) DRY           (1,34,10)
     DRY           (1,34,11) DRY           (1,34,12) DRY           (1,34,13) DRY           (1,34,14) DRY           (1,34,15)
     DRY           (1,34,16) DRY           (1,34,17) DRY           (1,34,18) DRY           (1,34,19) DRY           (1,34,20)
     DRY           (1,34,21) DRY           (1,34,22) DRY           (1,34,23) DRY           (1,34,24) DRY           (1,34,25)
     DRY           (1,34,26) DRY           (1,34,27) DRY           (1,34,28) DRY           (1,34,29) DRY           (1,34,30)
     DRY           (1,34,31) DRY           (1,34,32) DRY           (1,34,33) DRY           (1,34,34) DRY           (1,34,35)
     DRY           (1,34,36) DRY           (1,34,37) DRY           (1,34,38) DRY           (1,34,39) DRY           (1,34,40)
     DRY            (1,35,1) DRY            (1,35,2) DRY            (1,35,3) DRY            (1,35,4) DRY            (1,35,5)
     DRY            (1,35,6) DRY            (1,35,7) DRY            (1,35,8) DRY            (1,35,9) DRY           (1,35,10)
     DRY           (1,35,11) DRY           (1,35,12) DRY           (1,35,13) DRY           (1,35,14) DRY           (1,35,15)
     DRY           (1,35,16) DRY           (1,35,17) DRY           (1,35,18) DRY           (1,35,19) DRY           (1,35,20)
     DRY           (1,35,21) DRY           (1,35,22) DRY           (1,35,23) DRY           (1,35,24) DRY           (1,35,25)
     DRY           (1,35,26) DRY           (1,35,27) DRY           (1,35,28) DRY           (1,35,29) DRY           (1,35,30)
     DRY           (1,35,31) DRY           (1,35,32) DRY           (1,35,33) DRY           (1,35,34) DRY           (1,35,35)
     DRY           (1,35,36) DRY           (1,35,37) DRY           (1,35,38) DRY           (1,35,39) DRY           (1,35,40)
     DRY            (1,36,1) DRY            (1,36,2) DRY            (1,36,3) DRY            (1,36,4) DRY            (1,36,5)
     DRY            (1,36,6) DRY            (1,36,7) DRY            (1,36,8) DRY            (1,36,9) DRY           (1,36,10)
     DRY           (1,36,11) DRY           (1,36,12) DRY           (1,36,13) DRY           (1,36,14) DRY           (1,36,15)
     DRY           (1,36,16) DRY           (1,36,17) DRY           (1,36,18) DRY           (1,36,19) DRY           (1,36,20)
     DRY           (1,36,21) DRY           (1,36,22) DRY           (1,36,23) DRY           (1,36,24) DRY           (1,36,25)
     DRY           (1,36,26) DRY           (1,36,27) DRY           (1,36,28) DRY           (1,36,29) DRY           (1,36,30)
     DRY           (1,36,31) DRY           (1,36,32) DRY           (1,36,33) DRY           (1,36,34) DRY           (1,36,35)
     DRY           (1,36,36) DRY           (1,36,37) DRY           (1,36,38) DRY           (1,36,39) DRY           (1,36,40)
     DRY            (1,37,1) DRY            (1,37,2) DRY            (1,37,3) DRY            (1,37,4) DRY            (1,37,5)
     DRY            (1,37,6) DRY            (1,37,7) DRY            (1,37,8) DRY            (1,37,9) DRY           (1,37,10)
     DRY           (1,37,11) DRY           (1,37,12) DRY           (1,37,13) DRY           (1,37,14) DRY           (1,37,15)
     DRY           (1,37,16) DRY           (1,37,17) DRY           (1,37,18) DRY           (1,37,19) DRY           (1,37,20)
     DRY           (1,37,21) DRY           (1,37,22) DRY           (1,37,23) DRY           (1,37,24) DRY           (1,37,25)
     DRY           (1,37,26) DRY           (1,37,27) DRY           (1,37,28) DRY           (1,37,29) DRY           (1,37,30)
     DRY           (1,37,31) DRY           (1,37,32) DRY           (1,37,33) DRY           (1,37,34) DRY           (1,37,35)
     DRY           (1,37,36) DRY           (1,37,37) DRY           (1,37,38) DRY           (1,37,39) DRY           (1,37,40)
     DRY            (1,38,1) DRY            (1,38,2) DRY            (1,38,3) DRY            (1,38,4) DRY            (1,38,5)
     DRY            (1,38,6) DRY            (1,38,7) DRY            (1,38,8) DRY            (1,38,9) DRY           (1,38,10)
     DRY           (1,38,11) DRY           (1,38,12) DRY           (1,38,13) DRY           (1,38,14) DRY           (1,38,15)
     DRY           (1,38,16) DRY           (1,38,17) DRY           (1,38,18) DRY           (1,38,19) DRY           (1,38,20)
     DRY           (1,38,21) DRY           (1,38,22) DRY           (1,38,23) DRY           (1,38,24) DRY           (1,38,25)
     DRY           (1,38,26) DRY           (1,38,27) DRY           (1,38,28) DRY           (1,38,29) DRY           (1,38,30)
     DRY           (1,38,31) DRY           (1,38,32) DRY           (1,38,33) DRY           (1,38,34) DRY           (1,38,35)
     DRY           (1,38,36) DRY           (1,38,37) DRY           (1,38,38) DRY           (1,38,39) DRY           (1,38,40)
     DRY            (1,39,1) DRY            (1,39,2) DRY            (1,39,3) DRY            (1,39,4) DRY            (1,39,5)
     DRY            (1,39,6) DRY            (1,39,7) DRY            (1,39,8) DRY            (1,39,9) DRY           (1,39,10)
     DRY           (1,39,11) DRY           (1,39,12) DRY           (1,39,13) DRY           (1,39,14) DRY           (1,39,15)
     DRY           (1,39,16) DRY           (1,39,17) DRY           (1,39,18) DRY           (1,39,19) DRY           (1,39,20)
     DRY           (1,39,21) DRY           (1,39,22) DRY           (1,39,23) DRY           (1,39,24) DRY           (1,39,25)
     DRY           (1,39,26) DRY           (1,39,27) DRY           (1,39,28) DRY           (1,39,29) DRY           (1,39,30)
     DRY           (1,39,31) DRY           (1,39,32) DRY           (1,39,33) DRY           (1,39,34) DRY           (1,39,35)
     DRY           (1,39,36) DRY           (1,39,37) DRY           (1,39,38) DRY           (1,39,39) DRY           (1,39,40)
     DRY            (1,40,1) DRY            (1,40,2) DRY            (1,40,3) DRY            (1,40,4) DRY            (1,40,5)
     DRY            (1,40,6) DRY            (1,40,7) DRY            (1,40,8) DRY            (1,40,9) DRY           (1,40,10)
     DRY           (1,40,11) DRY           (1,40,12) DRY           (1,40,13) DRY           (1,40,14) DRY           (1,40,15)
     DRY           (1,40,16) DRY           (1,40,17) DRY           (1,40,18) DRY           (1,40,19) DRY           (1,40,20)
     DRY           (1,40,21) DRY           (1,40,22) DRY           (1,40,23) DRY           (1,40,24) DRY           (1,40,25)
     DRY           (1,40,26) DRY           (1,40,27) DRY           (1,40,28) DRY           (1,40,29) DRY           (1,40,30)
     DRY           (1,40,31) DRY           (1,40,32) DRY           (1,40,33) DRY           (1,40,34) DRY           (1,40,35)
     DRY           (1,40,36) DRY           (1,40,37) DRY           (1,40,38) DRY           (1,40,39) DRY           (1,40,40)
     DRY             (2,1,1) DRY             (2,1,2) DRY             (2,1,3) DRY             (2,1,4) DRY             (2,1,5)
     DRY             (2,1,6) DRY             (2,1,7) DRY             (2,1,8) DRY             (2,1,9) DRY            (2,1,10)
     DRY            (2,1,11) DRY            (2,1,12) DRY            (2,1,13) DRY            (2,1,14) DRY            (2,1,15)
     DRY            (2,1,16) DRY            (2,1,17) DRY            (2,1,18) DRY            (2,1,19) DRY            (2,1,20)
     DRY            (2,1,21) DRY            (2,1,22) DRY            (2,1,23) DRY            (2,1,24) DRY            (2,1,25)
     DRY            (2,1,26) DRY            (2,1,27) DRY            (2,1,28) DRY            (2,1,29) DRY            (2,1,30)
     DRY            (2,1,31) DRY            (2,1,32) DRY            (2,1,33) DRY            (2,1,34) DRY            (2,1,35)
     DRY            (2,1,36) DRY            (2,1,37) DRY            (2,1,38) DRY            (2,1,39) DRY            (2,1,40)
     DRY             (2,2,1) DRY             (2,2,2) DRY             (2,2,3) DRY             (2,2,4) DRY             (2,2,5)
     DRY             (2,2,6) DRY             (2,2,7) DRY             (2,2,8) DRY             (2,2,9) DRY            (2,2,10)
     DRY            (2,2,11) DRY            (2,2,12) DRY            (2,2,13) DRY            (2,2,14) DRY            (2,2,15)
     DRY            (2,2,16) DRY            (2,2,17) DRY            (2,2,18) DRY            (2,2,19) DRY            (2,2,20)
     DRY            (2,2,21) DRY            (2,2,22) DRY            (2,2,23) DRY            (2,2,24) DRY            (2,2,25)
     DRY            (2,2,26) DRY            (2,2,27) DRY            (2,2,28) DRY            (2,2,29) DRY            (2,2,30)
     DRY            (2,2,31) DRY            (2,2,32) DRY            (2,2,33) DRY            (2,2,34) DRY            (2,2,35)
     DRY            (2,2,36) DRY            (2,2,37) DRY            (2,2,38) DRY            (2,2,39) DRY            (2,2,40)
     DRY             (2,3,1) DRY             (2,3,2) DRY             (2,3,3) DRY             (2,3,4) DRY             (2,3,5)
     DRY             (2,3,6) DRY             (2,3,7) DRY             (2,3,8) DRY             (2,3,9) DRY            (2,3,10)
     DRY            (2,3,11) DRY            (2,3,12) DRY            (2,3,13) DRY            (2,3,14) DRY            (2,3,15)
     DRY            (2,3,16) DRY            (2,3,17) DRY            (2,3,18) DRY            (2,3,19) DRY            (2,3,20)
     DRY            (2,3,21) DRY            (2,3,22) DRY            (2,3,23) DRY            (2,3,24) DRY            (2,3,25)
     DRY            (2,3,26) DRY            (2,3,27) DRY            (2,3,28) DRY            (2,3,29) DRY            (2,3,30)
     DRY            (2,3,31) DRY            (2,3,32) DRY            (2,3,33) DRY            (2,3,34) DRY            (2,3,35)
     DRY            (2,3,36) DRY            (2,3,37) DRY            (2,3,38) DRY            (2,3,39) DRY            (2,3,40)
     DRY             (2,4,1) DRY             (2,4,2) DRY             (2,4,3) DRY             (2,4,4) DRY             (2,4,5)
     DRY             (2,4,6) DRY             (2,4,7) DRY             (2,4,8) DRY             (2,4,9) DRY            (2,4,10)
     DRY            (2,4,11) DRY            (2,4,12) DRY            (2,4,13) DRY            (2,4,14) DRY            (2,4,15)
     DRY            (2,4,16) DRY            (2,4,17) DRY            (2,4,18) DRY            (2,4,19) DRY            (2,4,20)
     DRY            (2,4,21) DRY            (2,4,22) DRY            (2,4,23) DRY            (2,4,24) DRY            (2,4,25)
     DRY            (2,4,26) DRY            (2,4,27) DRY            (2,4,28) DRY            (2,4,29) DRY            (2,4,30)
     DRY            (2,4,31) DRY            (2,4,32) DRY            (2,4,33) DRY            (2,4,34) DRY            (2,4,35)
     DRY            (2,4,36) DRY            (2,4,37) DRY            (2,4,38) DRY            (2,4,39) DRY            (2,4,40)
     DRY             (2,5,1) DRY             (2,5,2) DRY             (2,5,3) DRY             (2,5,4) DRY             (2,5,5)
     DRY             (2,5,6) DRY             (2,5,7) DRY             (2,5,8) DRY             (2,5,9) DRY            (2,5,10)
     DRY            (2,5,11) DRY            (2,5,12) DRY            (2,5,13) DRY            (2,5,14) DRY            (2,5,15)
     DRY            (2,5,16) DRY            (2,5,17) DRY            (2,5,18) DRY            (2,5,19) DRY            (2,5,20)
     DRY            (2,5,21) DRY            (2,5,22) DRY            (2,5,23) DRY            (2,5,24) DRY            (2,5,25)
     DRY            (2,5,26) DRY            (2,5,27) DRY            (2,5,28) DRY            (2,5,29) DRY            (2,5,30)
     DRY            (2,5,31) DRY            (2,5,32) DRY            (2,5,33) DRY            (2,5,34) DRY            (2,5,35)
     DRY            (2,5,36) DRY            (2,5,37) DRY            (2,5,38) DRY            (2,5,39) DRY            (2,5,40)
     DRY             (2,6,1) DRY             (2,6,2) DRY             (2,6,3) DRY             (2,6,4) DRY             (2,6,5)
     DRY             (2,6,6) DRY             (2,6,7) DRY             (2,6,8) DRY             (2,6,9) DRY            (2,6,10)
     DRY            (2,6,11) DRY            (2,6,12) DRY            (2,6,13) DRY            (2,6,14) DRY            (2,6,15)
     DRY            (2,6,16) DRY            (2,6,17) DRY            (2,6,18) DRY            (2,6,19) DRY            (2,6,20)
     DRY            (2,6,21) DRY            (2,6,22) DRY            (2,6,23) DRY            (2,6,24) DRY            (2,6,25)
     DRY            (2,6,26) DRY            (2,6,27) DRY            (2,6,28) DRY            (2,6,29) DRY            (2,6,30)
     DRY            (2,6,31) DRY            (2,6,32) DRY            (2,6,33) DRY            (2,6,34) DRY            (2,6,35)
     DRY            (2,6,36) DRY            (2,6,37) DRY            (2,6,38) DRY            (2,6,39) DRY            (2,6,40)
     DRY             (2,7,1) DRY             (2,7,2) DRY             (2,7,3) DRY             (2,7,4) DRY             (2,7,5)
     DRY             (2,7,6) DRY             (2,7,7) DRY             (2,7,8) DRY             (2,7,9) DRY            (2,7,10)
     DRY            (2,7,11) DRY            (2,7,12) DRY            (2,7,13) DRY            (2,7,14) DRY            (2,7,15)
     DRY            (2,7,16) DRY            (2,7,17) DRY            (2,7,18) DRY            (2,7,19) DRY            (2,7,20)
     DRY            (2,7,21) DRY            (2,7,22) DRY            (2,7,23) DRY            (2,7,24) DRY            (2,7,25)
     DRY            (2,7,26) DRY            (2,7,27) DRY            (2,7,28) DRY            (2,7,29) DRY            (2,7,30)
     DRY            (2,7,31) DRY            (2,7,32) DRY            (2,7,33) DRY            (2,7,34) DRY            (2,7,35)
     DRY            (2,7,36) DRY            (2,7,37) DRY            (2,7,38) DRY            (2,7,39) DRY            (2,7,40)
     DRY             (2,8,1) DRY             (2,8,2) DRY             (2,8,3) DRY             (2,8,4) DRY             (2,8,5)
     DRY             (2,8,6) DRY             (2,8,7) DRY             (2,8,8) DRY             (2,8,9) DRY            (2,8,10)
     DRY            (2,8,11) DRY            (2,8,12) DRY            (2,8,13) DRY            (2,8,14) DRY            (2,8,15)
     DRY            (2,8,16) DRY            (2,8,17) DRY            (2,8,18) DRY            (2,8,19) DRY            (2,8,20)
     DRY            (2,8,21) DRY            (2,8,22) DRY            (2,8,23) DRY            (2,8,24) DRY            (2,8,25)
     DRY            (2,8,26) DRY            (2,8,27) DRY            (2,8,28) DRY            (2,8,29) DRY            (2,8,30)
     DRY            (2,8,31) DRY            (2,8,32) DRY            (2,8,33) DRY            (2,8,34) DRY            (2,8,35)
     DRY            (2,8,36) DRY            (2,8,37) DRY            (2,8,38) DRY            (2,8,39) DRY            (2,8,40)
     DRY             (2,9,1) DRY             (2,9,2) DRY             (2,9,3) DRY             (2,9,4) DRY             (2,9,5)
     DRY             (2,9,6) DRY             (2,9,7) DRY             (2,9,8) DRY             (2,9,9) DRY            (2,9,10)
     DRY            (2,9,11) DRY            (2,9,12) DRY            (2,9,13) DRY            (2,9,14) DRY            (2,9,15)
     DRY            (2,9,16) DRY            (2,9,17) DRY            (2,9,18) DRY            (2,9,19) DRY            (2,9,20)
     DRY            (2,9,21) DRY            (2,9,22) DRY            (2,9,23) DRY            (2,9,24) DRY            (2,9,25)
     DRY            (2,9,26) DRY            (2,9,27) DRY            (2,9,28) DRY            (2,9,29) DRY            (2,9,30)
     DRY            (2,9,31) DRY            (2,9,32) DRY            (2,9,33) DRY            (2,9,34) DRY            (2,9,35)
     DRY            (2,9,36) DRY            (2,9,37) DRY            (2,9,38) DRY            (2,9,39) DRY            (2,9,40)
     DRY            (2,10,1) DRY            (2,10,2) DRY            (2,10,3) DRY            (2,10,4) DRY            (2,10,5)
     DRY            (2,10,6) DRY            (2,10,7) DRY            (2,10,8) DRY            (2,10,9) DRY           (2,10,10)
     DRY           (2,10,11) DRY           (2,10,12) DRY           (2,10,13) DRY           (2,10,14) DRY           (2,10,15)
     DRY           (2,10,16) DRY           (2,10,17) DRY           (2,10,18) DRY           (2,10,19) DRY           (2,10,20)
     DRY           (2,10,21) DRY           (2,10,22) DRY           (2,10,23) DRY           (2,10,24) DRY           (2,10,25)
     DRY           (2,10,26) DRY           (2,10,27) DRY           (2,10,28) DRY           (2,10,29) DRY           (2,10,30)
     DRY           (2,10,31) DRY           (2,10,32) DRY           (2,10,33) DRY           (2,10,34) DRY           (2,10,35)
     DRY           (2,10,36) DRY           (2,10,37) DRY           (2,10,38) DRY           (2,10,39) DRY           (2,10,40)
     DRY            (2,11,1) DRY            (2,11,2) DRY            (2,11,3) DRY            (2,11,4) DRY            (2,11,5)
     DRY            (2,11,6) DRY            (2,11,7) DRY            (2,11,8) DRY            (2,11,9) DRY           (2,11,10)
     DRY           (2,11,11) DRY           (2,11,12) DRY           (2,11,13) DRY           (2,11,14) DRY           (2,11,15)
     DRY           (2,11,16) DRY           (2,11,17) DRY           (2,11,18) DRY           (2,11,19) DRY           (2,11,20)
     DRY           (2,11,21) DRY           (2,11,22) DRY           (2,11,23) DRY           (2,11,24) DRY           (2,11,25)
     DRY           (2,11,26) DRY           (2,11,27) DRY           (2,11,28) DRY           (2,11,29) DRY           (2,11,30)
     DRY           (2,11,31) DRY           (2,11,32) DRY           (2,11,33) DRY           (2,11,34) DRY           (2,11,35)
     DRY           (2,11,36) DRY           (2,11,37) DRY           (2,11,38) DRY           (2,11,39) DRY           (2,11,40)
     DRY            (2,12,1) DRY            (2,12,2) DRY            (2,12,3) DRY            (2,12,4) DRY            (2,12,5)
     DRY            (2,12,6) DRY            (2,12,7) DRY            (2,12,8) DRY            (2,12,9) DRY           (2,12,10)
     DRY           (2,12,11) DRY           (2,12,12) DRY           (2,12,13) DRY           (2,12,14) DRY           (2,12,15)
     DRY           (2,12,16) DRY           (2,12,17) DRY           (2,12,18) DRY           (2,12,19) DRY           (2,12,20)
     DRY           (2,12,21) DRY           (2,12,22) DRY           (2,12,23) DRY           (2,12,24) DRY           (2,12,25)
     DRY           (2,12,26) DRY           (2,12,27) DRY           (2,12,28) DRY           (2,12,29) DRY           (2,12,30)
     DRY           (2,12,31) DRY           (2,12,32) DRY           (2,12,33) DRY           (2,12,34) DRY           (2,12,35)
     DRY           (2,12,36) DRY           (2,12,37) DRY           (2,12,38) DRY           (2,12,39) DRY           (2,12,40)
     DRY            (2,13,1) DRY            (2,13,2) DRY            (2,13,3) DRY            (2,13,4) DRY            (2,13,5)
     DRY            (2,13,6) DRY            (2,13,7) DRY            (2,13,8) DRY            (2,13,9) DRY           (2,13,10)
     DRY           (2,13,11) DRY           (2,13,12) DRY           (2,13,13) DRY           (2,13,14) DRY           (2,13,15)
     DRY           (2,13,16) DRY           (2,13,17) DRY           (2,13,18) DRY           (2,13,19) DRY           (2,13,20)
     DRY           (2,13,21) DRY           (2,13,22) DRY           (2,13,23) DRY           (2,13,24) DRY           (2,13,25)
     DRY           (2,13,26) DRY           (2,13,27) DRY           (2,13,28) DRY           (2,13,29) DRY           (2,13,30)
     DRY           (2,13,31) DRY           (2,13,32) DRY           (2,13,33) DRY           (2,13,34) DRY           (2,13,35)
     DRY           (2,13,36) DRY           (2,13,37) DRY           (2,13,38) DRY           (2,13,39) DRY           (2,13,40)
     DRY            (2,14,1) DRY            (2,14,2) DRY            (2,14,3) DRY            (2,14,4) DRY            (2,14,5)
     DRY            (2,14,6) DRY            (2,14,7) DRY            (2,14,8) DRY            (2,14,9) DRY           (2,14,10)
     DRY           (2,14,11) DRY           (2,14,12) DRY           (2,14,13) DRY           (2,14,14) DRY           (2,14,15)
     DRY           (2,14,16) DRY           (2,14,17) DRY           (2,14,18) DRY           (2,14,19) DRY           (2,14,20)
     DRY           (2,14,21) DRY           (2,14,22) DRY           (2,14,23) DRY           (2,14,24) DRY           (2,14,25)
     DRY           (2,14,26) DRY           (2,14,27) DRY           (2,14,28) DRY           (2,14,29) DRY           (2,14,30)
     DRY           (2,14,31) DRY           (2,14,32) DRY           (2,14,33) DRY           (2,14,34) DRY           (2,14,35)
     DRY           (2,14,36) DRY           (2,14,37) DRY           (2,14,38) DRY           (2,14,39) DRY           (2,14,40)
     DRY            (2,15,1) DRY            (2,15,2) DRY            (2,15,3) DRY            (2,15,4) DRY            (2,15,5)
     DRY            (2,15,6) DRY            (2,15,7) DRY            (2,15,8) DRY            (2,15,9) DRY           (2,15,10)
     DRY           (2,15,11) DRY           (2,15,12) DRY           (2,15,13) DRY           (2,15,14) DRY           (2,15,15)
     DRY           (2,15,16) DRY           (2,15,17) DRY           (2,15,18) DRY           (2,15,19) DRY           (2,15,20)
     DRY           (2,15,21) DRY           (2,15,22) DRY           (2,15,23) DRY           (2,15,24) DRY           (2,15,25)
     DRY           (2,15,26) DRY           (2,15,27) DRY           (2,15,28) DRY           (2,15,29) DRY           (2,15,30)
     DRY           (2,15,31) DRY           (2,15,32) DRY           (2,15,33) DRY           (2,15,34) DRY           (2,15,35)
     DRY           (2,15,36) DRY           (2,15,37) DRY           (2,15,38) DRY           (2,15,39) DRY           (2,15,40)
     DRY            (2,16,1) DRY            (2,16,2) DRY            (2,16,3) DRY            (2,16,4) DRY            (2,16,5)
     DRY            (2,16,6) DRY            (2,16,7) DRY            (2,16,8) DRY            (2,16,9) DRY           (2,16,10)
     DRY           (2,16,11) DRY           (2,16,12) DRY           (2,16,13) DRY           (2,16,14) DRY           (2,16,15)
     DRY           (2,16,16) DRY           (2,16,17) DRY           (2,16,18) DRY           (2,16,19) DRY           (2,16,20)
     DRY           (2,16,21) DRY           (2,16,22) DRY           (2,16,23) DRY           (2,16,24) DRY           (2,16,25)
     DRY           (2,16,26) DRY           (2,16,27) DRY           (2,16,28) DRY           (2,16,29) DRY           (2,16,30)
     DRY           (2,16,31) DRY           (2,16,32) DRY           (2,16,33) DRY           (2,16,34) DRY           (2,16,35)
     DRY           (2,16,36) DRY           (2,16,37) DRY           (2,16,38) DRY           (2,16,39) DRY           (2,16,40)
     DRY            (2,17,1) DRY            (2,17,2) DRY            (2,17,3) DRY            (2,17,4) DRY            (2,17,5)
     DRY            (2,17,6) DRY            (2,17,7) DRY            (2,17,8) DRY            (2,17,9) DRY           (2,17,10)
     DRY           (2,17,11) DRY           (2,17,12) DRY           (2,17,13) DRY           (2,17,14) DRY           (2,17,15)
     DRY           (2,17,16) DRY           (2,17,17) DRY           (2,17,18) DRY           (2,17,19) DRY           (2,17,20)
     DRY           (2,17,21) DRY           (2,17,22) DRY           (2,17,23) DRY           (2,17,24) DRY           (2,17,25)
     DRY           (2,17,26) DRY           (2,17,27) DRY           (2,17,28) DRY           (2,17,29) DRY           (2,17,30)
     DRY           (2,17,31) DRY           (2,17,32) DRY           (2,17,33) DRY           (2,17,34) DRY           (2,17,35)
     DRY           (2,17,36) DRY           (2,17,37) DRY           (2,17,38) DRY           (2,17,39) DRY           (2,17,40)
     DRY            (2,18,1) DRY            (2,18,2) DRY            (2,18,3) DRY            (2,18,4) DRY            (2,18,5)
     DRY            (2,18,6) DRY            (2,18,7) DRY            (2,18,8) DRY            (2,18,9) DRY           (2,18,10)
     DRY           (2,18,11) DRY           (2,18,12) DRY           (2,18,13) DRY           (2,18,14) DRY           (2,18,15)
     DRY           (2,18,16) DRY           (2,18,17) DRY           (2,18,18) DRY           (2,18,19) DRY           (2,18,20)
     DRY           (2,18,21) DRY           (2,18,22) DRY           (2,18,23) DRY           (2,18,24) DRY           (2,18,25)
     DRY           (2,18,26) DRY           (2,18,27) DRY           (2,18,28) DRY           (2,18,29) DRY           (2,18,30)
     DRY           (2,18,31) DRY           (2,18,32) DRY           (2,18,33) DRY           (2,18,34) DRY           (2,18,35)
     DRY           (2,18,36) DRY           (2,18,37) DRY           (2,18,38) DRY           (2,18,39) DRY           (2,18,40)
     DRY            (2,19,1) DRY            (2,19,2) DRY            (2,19,3) DRY            (2,19,4) DRY            (2,19,5)
     DRY            (2,19,6) DRY            (2,19,7) DRY            (2,19,8) DRY            (2,19,9) DRY           (2,19,10)
     DRY           (2,19,11) DRY           (2,19,12) DRY           (2,19,13) DRY           (2,19,14) DRY           (2,19,15)
     DRY           (2,19,16) DRY           (2,19,17) DRY           (2,19,18) DRY           (2,19,19) DRY           (2,19,20)
     DRY           (2,19,21) DRY           (2,19,22) DRY           (2,19,23) DRY           (2,19,24) DRY           (2,19,25)
     DRY           (2,19,26) DRY           (2,19,27) DRY           (2,19,28) DRY           (2,19,29) DRY           (2,19,30)
     DRY           (2,19,31) DRY           (2,19,32) DRY           (2,19,33) DRY           (2,19,34) DRY           (2,19,35)
     DRY           (2,19,36) DRY           (2,19,37) DRY           (2,19,38) DRY           (2,19,39) DRY           (2,19,40)
     DRY            (2,20,1) DRY            (2,20,2) DRY            (2,20,3) DRY            (2,20,4) DRY            (2,20,5)
     DRY            (2,20,6) DRY            (2,20,7) DRY            (2,20,8) DRY            (2,20,9) DRY           (2,20,10)
     DRY           (2,20,11) DRY           (2,20,12) DRY           (2,20,13) DRY           (2,20,14) DRY           (2,20,15)
     DRY           (2,20,16) DRY           (2,20,17) DRY           (2,20,18) DRY           (2,20,19) DRY           (2,20,20)
     DRY           (2,20,21) DRY           (2,20,22) DRY           (2,20,23) DRY           (2,20,24) DRY           (2,20,25)
     DRY           (2,20,26) DRY           (2,20,27) DRY           (2,20,28) DRY           (2,20,29) DRY           (2,20,30)
     DRY           (2,20,31) DRY           (2,20,32) DRY           (2,20,33) DRY           (2,20,34) DRY           (2,20,35)
     DRY           (2,20,36) DRY           (2,20,37) DRY           (2,20,38) DRY           (2,20,39) DRY           (2,20,40)
     DRY            (2,21,1) DRY            (2,21,2) DRY            (2,21,3) DRY            (2,21,4) DRY            (2,21,5)
     DRY            (2,21,6) DRY            (2,21,7) DRY            (2,21,8) DRY            (2,21,9) DRY           (2,21,10)
     DRY           (2,21,11) DRY           (2,21,12) DRY           (2,21,13) DRY           (2,21,14) DRY           (2,21,15)
     DRY           (2,21,16) DRY           (2,21,17) DRY           (2,21,18) DRY           (2,21,19) DRY           (2,21,20)
     DRY           (2,21,21) DRY           (2,21,22) DRY           (2,21,23) DRY           (2,21,24) DRY           (2,21,25)
     DRY           (2,21,26) DRY           (2,21,27) DRY           (2,21,28) DRY           (2,21,29) DRY           (2,21,30)
     DRY           (2,21,31) DRY           (2,21,32) DRY           (2,21,33) DRY           (2,21,34) DRY           (2,21,35)
     DRY           (2,21,36) DRY           (2,21,37) DRY           (2,21,38) DRY           (2,21,39) DRY           (2,21,40)
     DRY            (2,22,1) DRY            (2,22,2) DRY            (2,22,3) DRY            (2,22,4) DRY            (2,22,5)
     DRY            (2,22,6) DRY            (2,22,7) DRY            (2,22,8) DRY            (2,22,9) DRY           (2,22,10)
     DRY           (2,22,11) DRY           (2,22,12) DRY           (2,22,13) DRY           (2,22,14) DRY           (2,22,15)
     DRY           (2,22,16) DRY           (2,22,17) DRY           (2,22,18) DRY           (2,22,19) DRY           (2,22,20)
     DRY           (2,22,21) DRY           (2,22,22) DRY           (2,22,23) DRY           (2,22,24) DRY           (2,22,25)
     DRY           (2,22,26) DRY           (2,22,27) DRY           (2,22,28) DRY           (2,22,29) DRY           (2,22,30)
     DRY           (2,22,31) DRY           (2,22,32) DRY           (2,22,33) DRY           (2,22,34) DRY           (2,22,35)
     DRY           (2,22,36) DRY           (2,22,37) DRY           (2,22,38) DRY           (2,22,39) DRY           (2,22,40)
     DRY            (2,23,1) DRY            (2,23,2) DRY            (2,23,3) DRY            (2,23,4) DRY            (2,23,5)
     DRY            (2,23,6) DRY            (2,23,7) DRY            (2,23,8) DRY            (2,23,9) DRY           (2,23,10)
     DRY           (2,23,11) DRY           (2,23,12) DRY           (2,23,13) DRY           (2,23,14) DRY           (2,23,15)
     DRY           (2,23,16) DRY           (2,23,17) DRY           (2,23,18) DRY           (2,23,19) DRY           (2,23,20)
     DRY           (2,23,21) DRY           (2,23,22) DRY           (2,23,23) DRY           (2,23,24) DRY           (2,23,25)
     DRY           (2,23,26) DRY           (2,23,27) DRY           (2,23,28) DRY           (2,23,29) DRY           (2,23,30)
     DRY           (2,23,31) DRY           (2,23,32) DRY           (2,23,33) DRY           (2,23,34) DRY           (2,23,35)
     DRY           (2,23,36) DRY           (2,23,37) DRY           (2,23,38) DRY           (2,23,39) DRY           (2,23,40)
     DRY            (2,24,1) DRY            (2,24,2) DRY            (2,24,3) DRY            (2,24,4) DRY            (2,24,5)
     DRY            (2,24,6) DRY            (2,24,7) DRY            (2,24,8) DRY            (2,24,9) DRY           (2,24,10)
     DRY           (2,24,11) DRY           (2,24,12) DRY           (2,24,13) DRY           (2,24,14) DRY           (2,24,15)
     DRY           (2,24,16) DRY           (2,24,17) DRY           (2,24,18) DRY           (2,24,19) DRY           (2,24,20)
     DRY           (2,24,21) DRY           (2,24,22) DRY           (2,24,23) DRY           (2,24,24) DRY           (2,24,25)
     DRY           (2,24,26) DRY           (2,24,27) DRY           (2,24,28) DRY           (2,24,29) DRY           (2,24,30)
     DRY           (2,24,31) DRY           (2,24,32) DRY           (2,24,33) DRY           (2,24,34) DRY           (2,24,35)
     DRY           (2,24,36) DRY           (2,24,37) DRY           (2,24,38) DRY           (2,24,39) DRY           (2,24,40)
     DRY            (2,25,1) DRY            (2,25,2) DRY            (2,25,3) DRY            (2,25,4) DRY            (2,25,5)
     DRY            (2,25,6) DRY            (2,25,7) DRY            (2,25,8) DRY            (2,25,9) DRY           (2,25,10)
     DRY           (2,25,11) DRY           (2,25,12) DRY           (2,25,13) DRY           (2,25,14) DRY           (2,25,15)
     DRY           (2,25,16) DRY           (2,25,17) DRY           (2,25,18) DRY           (2,25,19) DRY           (2,25,20)
     DRY           (2,25,21) DRY           (2,25,22) DRY           (2,25,23) DRY           (2,25,24) DRY           (2,25,25)
     DRY           (2,25,26) DRY           (2,25,27) DRY           (2,25,28) DRY           (2,25,29) DRY           (2,25,30)
     DRY           (2,25,31) DRY           (2,25,32) DRY           (2,25,33) DRY           (2,25,34) DRY           (2,25,35)
     DRY           (2,25,36) DRY           (2,25,37) DRY           (2,25,38) DRY           (2,25,39) DRY           (2,25,40)
     DRY            (2,26,1) DRY            (2,26,2) DRY            (2,26,3) DRY            (2,26,4) DRY            (2,26,5)
     DRY            (2,26,6) DRY            (2,26,7) DRY            (2,26,8) DRY            (2,26,9) DRY           (2,26,10)
     DRY           (2,26,11) DRY           (2,26,12) DRY           (2,26,13) DRY           (2,26,14) DRY           (2,26,15)
     DRY           (2,26,16) DRY           (2,26,17) DRY           (2,26,18) DRY           (2,26,19) DRY           (2,26,20)
     DRY           (2,26,21) DRY           (2,26,22) DRY           (2,26,23) DRY           (2,26,24) DRY           (2,26,25)
     DRY           (2,26,26) DRY           (2,26,27) DRY           (2,26,28) DRY           (2,26,29) DRY           (2,26,30)
     DRY           (2,26,31) DRY           (2,26,32) DRY           (2,26,33) DRY           (2,26,34) DRY           (2,26,35)
     DRY           (2,26,36) DRY           (2,26,37) DRY           (2,26,38) DRY           (2,26,39) DRY           (2,26,40)
     DRY            (2,27,1) DRY            (2,27,2) DRY            (2,27,3) DRY            (2,27,4) DRY            (2,27,5)
     DRY            (2,27,6) DRY            (2,27,7) DRY            (2,27,8) DRY            (2,27,9) DRY           (2,27,10)
     DRY           (2,27,11) DRY           (2,27,12) DRY           (2,27,13) DRY           (2,27,14) DRY           (2,27,15)
     DRY           (2,27,16) DRY           (2,27,17) DRY           (2,27,18) DRY           (2,27,19) DRY           (2,27,20)
     DRY           (2,27,21) DRY           (2,27,22) DRY           (2,27,23) DRY           (2,27,24) DRY           (2,27,25)
     DRY           (2,27,26) DRY           (2,27,27) DRY           (2,27,28) DRY           (2,27,29) DRY           (2,27,30)
     DRY           (2,27,31) DRY           (2,27,32) DRY           (2,27,33) DRY           (2,27,34) DRY           (2,27,35)
     DRY           (2,27,36) DRY           (2,27,37) DRY           (2,27,38) DRY           (2,27,39) DRY           (2,27,40)
     DRY            (2,28,1) DRY            (2,28,2) DRY            (2,28,3) DRY            (2,28,4) DRY            (2,28,5)
     DRY            (2,28,6) DRY            (2,28,7) DRY            (2,28,8) DRY            (2,28,9) DRY           (2,28,10)
     DRY           (2,28,11) DRY           (2,28,12) DRY           (2,28,13) DRY           (2,28,14) DRY           (2,28,15)
     DRY           (2,28,16) DRY           (2,28,17) DRY           (2,28,18) DRY           (2,28,19) DRY           (2,28,20)
     DRY           (2,28,21) DRY           (2,28,22) DRY           (2,28,23) DRY           (2,28,24) DRY           (2,28,25)
     DRY           (2,28,26) DRY           (2,28,27) DRY           (2,28,28) DRY           (2,28,29) DRY           (2,28,30)
     DRY           (2,28,31) DRY           (2,28,32) DRY           (2,28,33) DRY           (2,28,34) DRY           (2,28,35)
     DRY           (2,28,36) DRY           (2,28,37) DRY           (2,28,38) DRY           (2,28,39) DRY           (2,28,40)
     DRY            (2,29,1) DRY            (2,29,2) DRY            (2,29,3) DRY            (2,29,4) DRY            (2,29,5)
     DRY            (2,29,6) DRY            (2,29,7) DRY            (2,29,8) DRY            (2,29,9) DRY           (2,29,10)
     DRY           (2,29,11) DRY           (2,29,12) DRY           (2,29,13) DRY           (2,29,14) DRY           (2,29,15)
     DRY           (2,29,16) DRY           (2,29,17) DRY           (2,29,18) DRY           (2,29,19) DRY           (2,29,20)
     DRY           (2,29,21) DRY           (2,29,22) DRY           (2,29,23) DRY           (2,29,24) DRY           (2,29,25)
     DRY           (2,29,26) DRY           (2,29,27) DRY           (2,29,28) DRY           (2,29,29) DRY           (2,29,30)
     DRY           (2,29,31) DRY           (2,29,32) DRY           (2,29,33) DRY           (2,29,34) DRY           (2,29,35)
     DRY           (2,29,36) DRY           (2,29,37) DRY           (2,29,38) DRY           (2,29,39) DRY           (2,29,40)
     DRY            (2,30,1) DRY            (2,30,2) DRY            (2,30,3) DRY            (2,30,4) DRY            (2,30,5)
     DRY            (2,30,6) DRY            (2,30,7) DRY            (2,30,8) DRY            (2,30,9) DRY           (2,30,10)
     DRY           (2,30,11) DRY           (2,30,12) DRY           (2,30,13) DRY           (2,30,14) DRY           (2,30,15)
     DRY           (2,30,16) DRY           (2,30,17) DRY           (2,30,18) DRY           (2,30,19) DRY           (2,30,20)
     DRY           (2,30,21) DRY           (2,30,22) DRY           (2,30,23) DRY           (2,30,24) DRY           (2,30,25)
     DRY           (2,30,26) DRY           (2,30,27) DRY           (2,30,28) DRY           (2,30,29) DRY           (2,30,30)
     DRY           (2,30,31) DRY           (2,30,32) DRY           (2,30,33) DRY           (2,30,34) DRY           (2,30,35)
     DRY           (2,30,36) DRY           (2,30,37) DRY           (2,30,38) DRY           (2,30,39) DRY           (2,30,40)
     DRY            (2,31,1) DRY            (2,31,2) DRY            (2,31,3) DRY            (2,31,4) DRY            (2,31,5)
     DRY            (2,31,6) DRY            (2,31,7) DRY            (2,31,8) DRY            (2,31,9) DRY           (2,31,10)
     DRY           (2,31,11) DRY           (2,31,12) DRY           (2,31,13) DRY           (2,31,14) DRY           (2,31,15)
     DRY           (2,31,16) DRY           (2,31,17) DRY           (2,31,18) DRY           (2,31,19) DRY           (2,31,20)
     DRY           (2,31,21) DRY           (2,31,22) DRY           (2,31,23) DRY           (2,31,24) DRY           (2,31,25)
     DRY           (2,31,26) DRY           (2,31,27) DRY           (2,31,28) DRY           (2,31,29) DRY           (2,31,30)
     DRY           (2,31,31) DRY           (2,31,32) DRY           (2,31,33) DRY           (2,31,34) DRY           (2,31,35)
     DRY           (2,31,36) DRY           (2,31,37) DRY           (2,31,38) DRY           (2,31,39) DRY           (2,31,40)
     DRY            (2,32,1) DRY            (2,32,2) DRY            (2,32,3) DRY            (2,32,4) DRY            (2,32,5)
     DRY            (2,32,6) DRY            (2,32,7) DRY            (2,32,8) DRY            (2,32,9) DRY           (2,32,10)
     DRY           (2,32,11) DRY           (2,32,12) DRY           (2,32,13) DRY           (2,32,14) DRY           (2,32,15)
     DRY           (2,32,16) DRY           (2,32,17) DRY           (2,32,18) DRY           (2,32,19) DRY           (2,32,20)
     DRY           (2,32,21) DRY           (2,32,22) DRY           (2,32,23) DRY           (2,32,24) DRY           (2,32,25)
     DRY           (2,32,26) DRY           (2,32,27) DRY           (2,32,28) DRY           (2,32,29) DRY           (2,32,30)
     DRY           (2,32,31) DRY           (2,32,32) DRY           (2,32,33) DRY           (2,32,34) DRY           (2,32,35)
     DRY           (2,32,36) DRY           (2,32,37) DRY           (2,32,38) DRY           (2,32,39) DRY           (2,32,40)
     DRY            (2,33,1) DRY            (2,33,2) DRY            (2,33,3) DRY            (2,33,4) DRY            (2,33,5)
     DRY            (2,33,6) DRY            (2,33,7) DRY            (2,33,8) DRY            (2,33,9) DRY           (2,33,10)
     DRY           (2,33,11) DRY           (2,33,12) DRY           (2,33,13) DRY           (2,33,14) DRY           (2,33,15)
     DRY           (2,33,16) DRY           (2,33,17) DRY           (2,33,18) DRY           (2,33,19) DRY           (2,33,20)
     DRY           (2,33,21) DRY           (2,33,22) DRY           (2,33,23) DRY           (2,33,24) DRY           (2,33,25)
     DRY           (2,33,26) DRY           (2,33,27) DRY           (2,33,28) DRY           (2,33,29) DRY           (2,33,30)
     DRY           (2,33,31) DRY           (2,33,32) DRY           (2,33,33) DRY           (2,33,34) DRY           (2,33,35)
     DRY           (2,33,36) DRY           (2,33,37) DRY           (2,33,38) DRY           (2,33,39) DRY           (2,33,40)
     DRY            (2,34,1) DRY            (2,34,2) DRY            (2,34,3) DRY            (2,34,4) DRY            (2,34,5)
     DRY            (2,34,6) DRY            (2,34,7) DRY            (2,34,8) DRY            (2,34,9) DRY           (2,34,10)
     DRY           (2,34,11) DRY           (2,34,12) DRY           (2,34,13) DRY           (2,34,14) DRY           (2,34,15)
     DRY           (2,34,16) DRY           (2,34,17) DRY           (2,34,18) DRY           (2,34,19) DRY           (2,34,20)
     DRY           (2,34,21) DRY           (2,34,22) DRY           (2,34,23) DRY           (2,34,24) DRY           (2,34,25)
     DRY           (2,34,26) DRY           (2,34,27) DRY           (2,34,28) DRY           (2,34,29) DRY           (2,34,30)
     DRY           (2,34,31) DRY           (2,34,32) DRY           (2,34,33) DRY           (2,34,34) DRY           (2,34,35)
     DRY           (2,34,36) DRY           (2,34,37) DRY           (2,34,38) DRY           (2,34,39) DRY           (2,34,40)
     DRY            (2,35,1) DRY            (2,35,2) DRY            (2,35,3) DRY            (2,35,4) DRY            (2,35,5)
     DRY            (2,35,6) DRY            (2,35,7) DRY            (2,35,8) DRY            (2,35,9) DRY           (2,35,10)
     DRY           (2,35,11) DRY           (2,35,12) DRY           (2,35,13) DRY           (2,35,14) DRY           (2,35,15)
     DRY           (2,35,16) DRY           (2,35,17) DRY           (2,35,18) DRY           (2,35,19) DRY           (2,35,20)
     DRY           (2,35,21) DRY           (2,35,22) DRY           (2,35,23) DRY           (2,35,24) DRY           (2,35,25)
     DRY           (2,35,26) DRY           (2,35,27) DRY           (2,35,28) DRY           (2,35,29) DRY           (2,35,30)
     DRY           (2,35,31) DRY           (2,35,32) DRY           (2,35,33) DRY           (2,35,34) DRY           (2,35,35)
[...]
     WET           (9,29,31) WET           (9,29,32) WET           (9,29,33) WET           (9,29,34) WET           (9,29,35)
     WET           (9,29,36) WET           (9,29,37) WET            (9,30,7) WET            (9,30,8) WET            (9,30,9)
     WET           (9,30,10) WET           (9,30,11) WET           (9,30,12) WET           (9,30,13) WET           (9,30,14)
     WET           (9,30,15) WET           (9,30,16) WET           (9,30,17) WET           (9,30,18) WET           (9,30,19)
     WET           (9,30,20) WET           (9,30,21) WET           (9,30,22) WET           (9,30,23) WET           (9,30,24)
     WET           (9,30,25) WET           (9,30,26) WET           (9,30,27) WET           (9,30,28) WET           (9,30,29)
     WET           (9,30,30) WET           (9,30,31) WET           (9,30,32) WET           (9,30,33) WET           (9,30,34)
     WET           (9,30,35) WET           (9,30,36) WET           (9,30,37) WET            (9,31,1) WET            (9,31,2)
     WET            (9,31,3) WET            (9,31,4) WET            (9,31,5) WET            (9,31,6) WET            (9,31,7)
     WET            (9,31,8) WET            (9,31,9) WET           (9,31,10) WET           (9,31,11) WET           (9,31,12)
     WET           (9,31,13) WET           (9,31,14) WET           (9,31,15) WET           (9,31,16) WET           (9,31,17)
     WET           (9,31,18) WET           (9,31,19) WET           (9,31,20) WET           (9,31,21) WET           (9,31,22)
     WET           (9,31,23) WET           (9,31,24) WET           (9,31,25) WET           (9,31,26) WET           (9,31,27)
     WET           (9,31,28) WET           (9,31,29) WET           (9,31,30) WET           (9,31,31) WET           (9,31,32)
     WET           (9,31,33) WET           (9,31,34) WET           (9,31,35) WET           (9,31,36) WET            (9,32,1)
     WET            (9,32,2) WET            (9,32,3) WET            (9,32,4) WET            (9,32,5) WET            (9,32,6)
     WET            (9,32,7) WET            (9,32,8) WET            (9,32,9) WET           (9,32,10) WET           (9,32,11)
     WET           (9,32,12) WET           (9,32,13) WET           (9,32,14) WET           (9,32,15) WET           (9,32,16)
     WET           (9,32,17) WET           (9,32,18) WET           (9,32,19) WET           (9,32,20) WET           (9,32,21)
     WET           (9,32,22) WET           (9,32,23) WET           (9,32,24) WET           (9,32,25) WET           (9,32,26)
     WET           (9,32,27) WET           (9,32,28) WET           (9,32,29) WET           (9,32,30) WET           (9,32,31)
     WET           (9,32,32) WET           (9,32,33) WET           (9,32,34) WET           (9,32,35) WET           (9,32,36)
     WET            (9,33,1) WET            (9,33,2) WET            (9,33,3) WET            (9,33,4) WET            (9,33,5)
     WET            (9,33,6) WET            (9,33,7) WET            (9,33,8) WET            (9,33,9) WET           (9,33,10)
     WET           (9,33,11) WET           (9,33,12) WET           (9,33,13) WET           (9,33,14) WET           (9,33,15)
     WET           (9,33,16) WET           (9,33,17) WET           (9,33,18) WET           (9,33,19) WET           (9,33,20)
     WET           (9,33,21) WET           (9,33,22) WET           (9,33,23) WET           (9,33,24) WET           (9,33,25)
     WET           (9,33,26) WET           (9,33,27) WET           (9,33,28) WET           (9,33,29) WET           (9,33,30)
     WET           (9,33,31) WET           (9,33,32) WET           (9,33,33) WET           (9,33,34) WET           (9,33,35)
     WET            (9,34,1) WET            (9,34,2) WET            (9,34,3) WET            (9,34,4) WET            (9,34,5)
     WET            (9,34,6) WET            (9,34,7) WET            (9,34,8) WET            (9,34,9) WET           (9,34,10)
     WET           (9,34,11) WET           (9,34,12) WET           (9,34,13) WET           (9,34,14) WET           (9,34,15)
     WET           (9,34,16) WET           (9,34,17) WET           (9,34,18) WET           (9,34,19) WET           (9,34,20)
     WET           (9,34,21) WET           (9,34,22) WET           (9,34,23) WET           (9,34,24) WET           (9,34,25)
     WET           (9,34,26) WET           (9,34,27) WET           (9,34,28) WET           (9,34,29) WET           (9,34,30)
     WET           (9,34,31) WET           (9,34,32) WET           (9,34,33) WET           (9,34,34) WET           (9,34,35)
     WET            (9,35,1) WET            (9,35,2) WET            (9,35,3) WET            (9,35,4) WET            (9,35,5)
     WET            (9,35,6) WET            (9,35,7) WET            (9,35,8) WET            (9,35,9) WET           (9,35,10)
     WET           (9,35,11) WET           (9,35,12) WET           (9,35,13) WET           (9,35,14) WET           (9,35,15)
     WET           (9,35,16) WET           (9,35,17) WET           (9,35,18) WET           (9,35,19) WET           (9,35,20)
     WET           (9,35,21) WET           (9,35,22) WET           (9,35,23) WET           (9,35,24) WET           (9,35,25)
     WET           (9,35,26) WET           (9,35,27) WET           (9,35,28) WET           (9,35,29) WET           (9,35,30)
     WET           (9,35,31) WET           (9,35,32) WET           (9,35,33) WET           (9,35,34) WET            (9,36,1)
     WET            (9,36,2) WET            (9,36,3) WET            (9,36,4) WET            (9,36,5) WET            (9,36,6)
     WET            (9,36,7) WET            (9,36,8) WET            (9,36,9) WET           (9,36,10) WET           (9,36,11)
     WET           (9,36,12) WET           (9,36,13) WET           (9,36,14) WET           (9,36,15) WET           (9,36,16)
     WET           (9,36,17) WET           (9,36,18) WET           (9,36,19) WET           (9,36,20) WET           (9,36,21)
     WET           (9,36,22) WET           (9,36,23) WET           (9,36,24) WET           (9,36,25) WET           (9,36,26)
     WET           (9,36,27) WET           (9,36,28) WET           (9,36,29) WET           (9,36,30) WET           (9,36,31)
     WET           (9,36,32) WET            (9,37,1) WET            (9,37,2) WET            (9,37,3) WET            (9,37,4)
     WET            (9,37,5) WET            (9,37,6) WET            (9,37,7) WET            (9,37,8) WET            (9,37,9)
     WET           (9,37,10) WET           (9,37,11) WET           (9,37,12) WET           (9,37,13) WET           (9,37,14)
     WET           (9,37,15) WET           (9,37,16) WET           (9,37,17) WET           (9,37,18) WET           (9,37,19)
     WET           (9,37,20) WET           (9,37,21) WET           (9,37,22) WET           (9,37,23) WET           (9,37,24)
     WET           (9,37,25) WET           (9,37,26) WET           (9,37,27) WET           (9,37,28) WET           (9,37,29)
     WET           (9,37,30) WET            (9,38,1) WET            (9,38,2) WET            (9,38,3) WET            (9,38,4)
     WET            (9,38,5) WET            (9,38,6) WET            (9,38,7) WET            (9,38,8) WET            (9,38,9)
     WET           (9,38,10) WET           (9,38,11) WET           (9,38,12) WET           (9,38,13) WET           (9,38,14)
     WET           (9,38,15) WET           (9,38,16) WET           (9,38,17) WET           (9,38,18) WET           (9,38,19)
     WET           (9,38,20) WET           (9,38,21) WET           (9,38,22) WET           (9,38,23) WET           (9,38,24)
     WET           (9,38,25) WET            (9,39,1) WET            (9,39,2) WET            (9,39,3) WET            (9,39,4)
     WET            (9,39,5) WET            (9,39,6) WET            (9,39,7)

 CELL CONVERSIONS FOR ITER.=3  STEP=1  PERIOD=4   (NODE or LRC)
     WET             (2,1,1) WET             (2,1,2) WET             (2,2,1) WET             (2,2,2) WET             (3,1,3)
     WET             (3,2,3) WET             (3,3,1) WET             (3,3,2) WET             (4,1,4) WET             (4,1,5)
     WET             (4,2,4) WET             (4,2,5) WET             (4,3,3) WET             (4,3,4) WET             (4,4,1)
     WET             (4,4,2) WET             (4,4,3) WET             (4,5,1) WET             (4,5,2) WET             (5,1,6)
     WET             (5,1,7) WET             (5,1,8) WET             (5,2,6) WET             (5,2,7) WET             (5,2,8)
     WET             (5,3,5) WET             (5,3,6) WET             (5,3,7) WET             (5,3,8) WET             (5,4,4)
     WET             (5,4,5) WET             (5,4,6) WET             (5,4,7) WET             (5,5,3) WET             (5,5,4)
     WET             (5,5,5) WET             (5,5,6) WET             (5,5,7) WET             (5,6,1) WET             (5,6,2)
     WET             (5,6,3) WET             (5,6,4) WET             (5,6,5) WET             (5,6,6) WET             (5,7,1)
     WET             (5,7,2) WET             (5,7,3) WET             (5,7,4) WET             (5,7,5) WET             (5,8,1)
     WET             (5,8,2) WET             (5,8,3) WET             (6,1,9) WET            (6,1,10) WET            (6,1,11)
     WET            (6,1,12) WET            (6,1,13) WET             (6,2,9) WET            (6,2,10) WET            (6,2,11)
     WET            (6,2,12) WET            (6,2,13) WET             (6,3,9) WET            (6,3,10) WET            (6,3,11)
     WET            (6,3,12) WET            (6,3,13) WET             (6,4,8) WET             (6,4,9) WET            (6,4,10)
     WET            (6,4,11) WET            (6,4,12) WET            (6,4,13) WET             (6,5,8) WET             (6,5,9)
     WET            (6,5,10) WET            (6,5,11) WET            (6,5,12) WET            (6,5,13) WET             (6,6,7)
     WET             (6,6,8) WET             (6,6,9) WET            (6,6,10) WET            (6,6,11) WET            (6,6,12)
     WET             (6,7,6) WET             (6,7,7) WET             (6,7,8) WET             (6,7,9) WET            (6,7,10)
     WET            (6,7,11) WET            (6,7,12) WET             (6,8,4) WET             (6,8,5) WET             (6,8,6)
     WET             (6,8,7) WET             (6,8,8) WET             (6,8,9) WET            (6,8,10) WET            (6,8,11)
     WET             (6,9,1) WET             (6,9,2) WET             (6,9,3) WET             (6,9,4) WET             (6,9,5)
     WET             (6,9,6) WET             (6,9,7) WET             (6,9,8) WET             (6,9,9) WET            (6,9,10)
     WET            (6,10,1) WET            (6,10,2) WET            (6,10,3) WET            (6,10,4) WET            (6,10,5)
     WET            (6,10,6) WET            (6,10,7) WET            (6,10,8) WET            (6,10,9) WET            (6,11,1)
     WET            (6,11,2) WET            (6,11,3) WET            (6,11,4) WET            (6,11,5) WET            (6,11,6)
     WET            (6,11,7) WET            (6,11,8) WET            (6,12,1) WET            (6,12,2) WET            (6,12,3)
     WET            (6,12,4) WET            (6,12,5) WET            (6,12,6) WET            (6,12,7) WET            (6,13,1)
     WET            (6,13,2) WET            (6,13,3) WET            (6,13,4) WET            (6,13,5) WET            (7,1,14)
     WET            (7,1,15) WET            (7,1,16) WET            (7,1,17) WET            (7,1,18) WET            (7,1,19)
     WET            (7,1,20) WET            (7,2,14) WET            (7,2,15) WET            (7,2,16) WET            (7,2,17)
     WET            (7,2,18) WET            (7,2,19) WET            (7,2,20) WET            (7,3,14) WET            (7,3,15)
     WET            (7,3,16) WET            (7,3,17) WET            (7,3,18) WET            (7,3,19) WET            (7,3,20)
     WET            (7,4,14) WET            (7,4,15) WET            (7,4,16) WET            (7,4,17) WET            (7,4,18)
     WET            (7,4,19) WET            (7,4,20) WET            (7,5,14) WET            (7,5,15) WET            (7,5,16)
     WET            (7,5,17) WET            (7,5,18) WET            (7,5,19) WET            (7,5,20) WET            (7,6,13)
     WET            (7,6,14) WET            (7,6,15) WET            (7,6,16) WET            (7,6,17) WET            (7,6,18)
     WET            (7,6,19) WET            (7,6,20) WET            (7,7,13) WET            (7,7,14) WET            (7,7,15)
     WET            (7,7,16) WET            (7,7,17) WET            (7,7,18) WET            (7,7,19) WET            (7,8,12)
     WET            (7,8,13) WET            (7,8,14) WET            (7,8,15) WET            (7,8,16) WET            (7,8,17)
     WET            (7,8,18) WET            (7,8,19) WET            (7,9,11) WET            (7,9,12) WET            (7,9,13)
     WET            (7,9,14) WET            (7,9,15) WET            (7,9,16) WET            (7,9,17) WET            (7,9,18)
     WET            (7,9,19) WET           (7,10,10) WET           (7,10,11) WET           (7,10,12) WET           (7,10,13)
     WET           (7,10,14) WET           (7,10,15) WET           (7,10,16) WET           (7,10,17) WET           (7,10,18)
     WET            (7,11,9) WET           (7,11,10) WET           (7,11,11) WET           (7,11,12) WET           (7,11,13)
     WET           (7,11,14) WET           (7,11,15) WET           (7,11,16) WET           (7,11,17) WET           (7,11,18)
     WET            (7,12,8) WET            (7,12,9) WET           (7,12,10) WET           (7,12,11) WET           (7,12,12)
     WET           (7,12,13) WET           (7,12,14) WET           (7,12,15) WET           (7,12,16) WET           (7,12,17)
     WET            (7,13,6) WET            (7,13,7) WET            (7,13,8) WET            (7,13,9) WET           (7,13,10)
     WET           (7,13,11) WET           (7,13,12) WET           (7,13,13) WET           (7,13,14) WET           (7,13,15)
     WET           (7,13,16) WET            (7,14,1) WET            (7,14,2) WET            (7,14,3) WET            (7,14,4)
     WET            (7,14,5) WET            (7,14,6) WET            (7,14,7) WET            (7,14,8) WET            (7,14,9)
     WET           (7,14,10) WET           (7,14,11) WET           (7,14,12) WET           (7,14,13) WET           (7,14,14)
     WET           (7,14,15) WET           (7,14,16) WET            (7,15,1) WET            (7,15,2) WET            (7,15,3)
     WET            (7,15,4) WET            (7,15,5) WET            (7,15,6) WET            (7,15,7) WET            (7,15,8)
     WET            (7,15,9) WET           (7,15,10) WET           (7,15,11) WET           (7,15,12) WET           (7,15,13)
     WET           (7,15,14) WET           (7,15,15) WET            (7,16,1) WET            (7,16,2) WET            (7,16,3)
     WET            (7,16,4) WET            (7,16,5) WET            (7,16,6) WET            (7,16,7) WET            (7,16,8)
     WET            (7,16,9) WET           (7,16,10) WET           (7,16,11) WET           (7,16,12) WET           (7,16,13)
     WET           (7,16,14) WET            (7,17,1) WET            (7,17,2) WET            (7,17,3) WET            (7,17,4)
     WET            (7,17,5) WET            (7,17,6) WET            (7,17,7) WET            (7,17,8) WET            (7,17,9)
     WET           (7,17,10) WET           (7,17,11) WET           (7,17,12) WET            (7,18,1) WET            (7,18,2)
     WET            (7,18,3) WET            (7,18,4) WET            (7,18,5) WET            (7,18,6) WET            (7,18,7)
     WET            (7,18,8) WET            (7,18,9) WET           (7,18,10) WET           (7,18,11) WET            (7,19,1)
     WET            (7,19,2) WET            (7,19,3) WET            (7,19,4) WET            (7,19,5) WET            (7,19,6)
     WET            (7,19,7) WET            (7,19,8) WET            (7,19,9) WET            (7,20,1) WET            (7,20,2)
     WET            (7,20,3) WET            (7,20,4) WET            (7,20,5) WET            (7,20,6)

 CELL CONVERSIONS FOR ITER.=4  STEP=1  PERIOD=4   (NODE or LRC)
     DRY             (3,1,3) DRY             (3,2,3) DRY             (3,3,1) DRY             (3,3,2) DRY             (4,1,5)
     DRY             (4,2,5) DRY             (4,5,1) DRY             (4,5,2) DRY             (5,3,8) DRY             (5,5,7)
     DRY             (5,7,5) DRY             (5,8,3) DRY            (6,4,13) DRY            (6,5,13) DRY            (6,7,12)
     DRY            (6,8,11) DRY            (6,11,8) DRY            (6,12,7) DRY            (6,13,4) DRY            (6,13,5)
     DRY            (7,5,20) DRY            (7,6,20) DRY            (7,8,19) DRY            (7,9,19) DRY           (7,11,18)
     DRY           (7,12,17) DRY           (7,14,16) DRY           (7,15,15) DRY           (7,16,14) DRY           (7,17,12)
     DRY           (7,18,11) DRY            (7,19,8) DRY            (7,19,9) DRY            (7,20,5) DRY            (7,20,6)

 CELL CONVERSIONS FOR ITER.=5  STEP=1  PERIOD=4   (NODE or LRC)
     DRY             (2,2,2) DRY             (4,3,4) DRY             (4,4,3) DRY             (5,1,8) DRY             (5,2,8)
     DRY             (5,4,7) DRY             (5,6,6) DRY             (5,7,4) DRY             (5,8,1) DRY             (5,8,2)
     DRY            (6,2,13) DRY            (6,3,13) DRY            (6,6,12) DRY            (6,9,10) DRY            (6,10,9)
     DRY            (6,12,6) DRY            (6,13,2) DRY            (6,13,3)

 HEAD WILL BE SAVED ON UNIT 1015 AT END OF TIME STEP    1, STRESS PERIOD    4


  VOLUME BUDGET FOR ENTIRE MODEL AT END OF TIME STEP    1, STRESS PERIOD   4
  ---------------------------------------------------------------------------------------------------

     CUMULATIVE VOLUME      L**3       RATES FOR THIS TIME STEP      L**3/T          PACKAGE NAME    
     ------------------                 ------------------------                     ----------------

           IN:                                      IN:
           ---                                      ---
              STO-SS =       23952.9478                STO-SS =           0.0000     STORAGE                          
              STO-SY =       11166.6080                STO-SY =           0.0000     STORAGE                          
                 RCH =     8218750.0000                   RCH =        3125.0000     RCH_0                            
                 CHD =           0.0000                   CHD =           0.0000     CHD_0                            

            TOTAL IN =     8253869.5558              TOTAL IN =        3125.0000

          OUT:                                     OUT:
          ----                                     ----
              STO-SS =      256127.5915                STO-SS =           0.0000     STORAGE                          
              STO-SY =     7692708.6390                STO-SY =           0.0000     STORAGE                          
                 RCH =           0.0000                   RCH =           0.0000     RCH_0                            
                 CHD =      305029.9239                   CHD =        3124.9962     CHD_0                            

           TOTAL OUT =     8253866.1544             TOTAL OUT =        3124.9962

            IN - OUT =           3.4015              IN - OUT =       3.8283E-03

 PERCENT DISCREPANCY =           0.00     PERCENT DISCREPANCY =           0.00




         TIME SUMMARY AT END OF TIME STEP    1 IN STRESS PERIOD    4
                    SECONDS     MINUTES      HOURS       DAYS        YEARS
                    -----------------------------------------------------------
   TIME STEP LENGTH  86400.      1440.0      24.000      1.0000     2.73785E-03
 STRESS PERIOD TIME  86400.      1440.0      24.000      1.0000     2.73785E-03
         TOTAL TIME 2.27232E+08 3.78720E+06  63120.      2630.0      7.2005    


end timestep

