                                   MODFLOW 6
                U.S. GEOLOGICAL SURVEY MODULAR HYDROLOGIC MODEL
                            VERSION 6.6.0 12/20/2024

   MODFLOW 6 compiled Dec 31 2024 17:10:16 with Intel(R) Fortran Intel(R) 64
   Compiler Classic for applications running on Intel(R) 64, Version 2021.7.0
                             Build 20220726_000000

This software has been approved for release by the U.S. Geological 
Survey (USGS). Although the software has been subjected to rigorous 
review, the USGS reserves the right to update the software as needed 
pursuant to further analysis and review. No warranty, expressed or 
implied, is made by the USGS or the U.S. Government as to the 
functionality of the software and related material nor shall the 
fact of release constitute any such warranty. Furthermore, the 
software is released on condition that neither the USGS nor the U.S. 
Government shall be held liable for any damages resulting from its 
authorized or unauthorized use. Also refer to the USGS Water 
Resources Software User Rights Notice for complete use, copyright, 
and distribution information.


As a work of the United States Government, this USGS product is 
in the public domain within the United States. You can copy, 
modify, distribute, and perform the work, even for commercial 
purposes, all without asking permission. Additionally, USGS 
waives copyright and related rights in the work worldwide 
through CC0 1.0 Universal Public Domain Dedication 
(https://creativecommons.org/publicdomain/zero/1.0/).

The following GNU Lesser General Public License (LGPL) libraries
are used in this USGS product:

    SPARSKIT version 2.0
      ilut, luson, and qsplit 
      (https://www-users.cse.umn.edu/~saad/software/SPARSKIT/)

    RCM - Reverse Cuthill McKee Ordering
      (https://people.math.sc.edu/Burkardt/f_src/rcm/rcm.html)

    BLAS - Basic Linear Algebra Subprograms Level 1
      (https://people.math.sc.edu/Burkardt/f_src/blas1_d/blas1_d.html)

    SPARSEKIT - Sparse Matrix Utility Package
      amux, dperm, dvperm, rperm, and cperm
      (https://people.sc.fsu.edu/~jburkardt/f77_src/sparsekit/sparsekit.html)

The following BSD-3 License libraries are used in this USGS product:

    Modern Fortran DAG Library
      Copyright (c) 2018, Jacob Williams
      All rights reserved.
      (https://github.com/jacobwilliams/daglib)

MODFLOW 6 compiler options: /O2 /heap-arrays:0 /fpe:0 /traceback /nologo /fpp
/c /module:win64\mod_mf6\ /object:win64\obj_mf6\

System command used to initiate simulation:
C:\Users\gross.DESKTOP-AIRQM2M\anaconda3\Scripts\mf6.exe

MODFLOW was compiled using uniform precision.

Real Variables
  KIND: 8
  TINY (smallest non-zero value):    2.225074-308
  HUGE (largest value):    1.797693+308
  PRECISION: 15
  SIZE IN BITS: 64

Integer Variables
  KIND: 4
  HUGE (largest value): 2147483647
  SIZE IN BITS: 32

Long Integer Variables
  KIND: 8
  HUGE (largest value): 9223372036854775807
  SIZE IN BITS: 64

Logical Variables
  KIND: 4
  SIZE IN BITS: 32
 

 OPENED mfsim.nam
 FILE TYPE:NAM6               UNIT 1001   STATUS:OLD                 
 FORMAT:FORMATTED              ACCESS:SEQUENTIAL          
 ACTION:READ                

 # File generated by Flopy version 3.9.1 on 02/20/2025 at 14:30:32.

 OPENED trans.tdis
 FILE TYPE:TDIS6              UNIT 1002   STATUS:OLD                 
 FORMAT:FORMATTED              ACCESS:SEQUENTIAL          
 ACTION:READ                

 # File generated by Flopy version 3.9.1 on 02/20/2025 at 14:30:32.

 OPENED trans.nam
 FILE TYPE:GWT6               UNIT 1003   STATUS:OLD                 
 FORMAT:FORMATTED              ACCESS:SEQUENTIAL          
 ACTION:READ                

 # File generated by Flopy version 3.9.1 on 02/20/2025 at 14:30:32.

 OPENED trans.dis
 FILE TYPE:DIS6               UNIT 1004   STATUS:OLD                 
 FORMAT:FORMATTED              ACCESS:SEQUENTIAL          
 ACTION:READ                

 # File generated by Flopy version 3.9.1 on 02/20/2025 at 14:30:32.

 OPENED trans.ic
 FILE TYPE:IC6                UNIT 1005   STATUS:OLD                 
 FORMAT:FORMATTED              ACCESS:SEQUENTIAL          
 ACTION:READ                

 # File generated by Flopy version 3.9.1 on 02/20/2025 at 14:30:32.

 OPENED trans.fmi
 FILE TYPE:FMI6      UNIT 1006   STATUS:OLD                 
 FORMAT:FORMATTED              ACCESS:SEQUENTIAL          
 ACTION:READ                


 OPENED trans.mst
 FILE TYPE:MST6      UNIT 1007   STATUS:OLD                 
 FORMAT:FORMATTED              ACCESS:SEQUENTIAL          
 ACTION:READ                


 OPENED trans.adv
 FILE TYPE:ADV6      UNIT 1008   STATUS:OLD                 
 FORMAT:FORMATTED              ACCESS:SEQUENTIAL          
 ACTION:READ                


 OPENED trans.dsp
 FILE TYPE:DSP6               UNIT 1009   STATUS:OLD                 
 FORMAT:FORMATTED              ACCESS:SEQUENTIAL          
 ACTION:READ                

 # File generated by Flopy version 3.9.1 on 02/20/2025 at 14:30:32.

 OPENED trans.ssm
 FILE TYPE:SSM6      UNIT 1010   STATUS:OLD                 
 FORMAT:FORMATTED              ACCESS:SEQUENTIAL          
 ACTION:READ                


 OPENED trans.obs
 FILE TYPE:OBS6      UNIT 1011   STATUS:OLD                 
 FORMAT:FORMATTED              ACCESS:SEQUENTIAL          
 ACTION:READ                


 READING SIMULATION OPTIONS
    MAXIMUM NUMBER OF ERRORS THAT WILL BE STORED IS 1000
 END OF SIMULATION OPTIONS

 READING SIMULATION TIMING

 TDIS -- TEMPORAL DISCRETIZATION PACKAGE,
 VERSION 1 : 11/13/2014 - INPUT READ FROM MEMPATH: __INPUT__/SIM/TDIS                                
 PROCESSING TDIS OPTIONS
    SIMULATION TIME UNIT IS DAYS
 END OF TDIS OPTIONS
 PROCESSING TDIS DIMENSIONS
    2 STRESS PERIOD(S) IN SIMULATION
 END OF TDIS DIMENSIONS
 PROCESSING TDIS PERIODDATA


 STRESS PERIOD     LENGTH       TIME STEPS     MULTIPLIER FOR DELT
 ----------------------------------------------------------------------------
        1         160.0000         16                    1.000
        2         680.0000         84                    1.000
 END OF TDIS PERIODDATA
 END OF SIMULATION TIMING

 READING SIMULATION MODELS
    GWT6 model 1 will be created
 END OF SIMULATION MODELS

 READING SIMULATION EXCHANGES
 END OF SIMULATION EXCHANGES

 READING SOLUTIONGROUP

 Creating solution: SLN_1           

 OPENED trans.ims
 FILE TYPE:IMS   UNIT 1013   STATUS:OLD                 
 FORMAT:FORMATTED              ACCESS:SEQUENTIAL          
 ACTION:READ                

 END OF SOLUTIONGROUP

PROCESSING MODEL CONNECTIONS

 IMS -- ITERATIVE MODEL SOLUTION PACKAGE, VERSION 6, 4/28/2017
         INPUT READ FROM UNIT 1013
 # File generated by Flopy version 3.9.1 on 02/20/2025 at 14:30:32.

 PROCESSING IMS OPTIONS
 END OF IMS OPTIONS
 ***UNDER-RELAXATION WILL NOT BE USED***
 

 PROCESSING LINEAR DATA
 END OF LINEAR DATA
 ***IMS LINEAR SOLVER WILL BE USED***

 IMSLINEAR -- UNSTRUCTURED LINEAR SOLUTION PACKAGE, VERSION 8, 04/28/2017
 An asymmetric matrix will be solved

 OUTER ITERATION CONVERGENCE CRITERION    (DVCLOSE) =    0.100000E-02
 MAXIMUM NUMBER OF OUTER ITERATIONS        (MXITER) = 25
 SOLVER PRINTOUT INDEX                     (IPRIMS) = 0
 NONLINEAR ITERATION METHOD            (NONLINMETH) = 0
 LINEAR SOLUTION METHOD                   (LINMETH) = 1

       SOLUTION BY THE BICONJUGATE-GRADIENT STABILIZED METHOD
 ------------------------------------------------------------------
 MAXIMUM OF 25 CALLS OF SOLUTION ROUTINE
 MAXIMUM OF 50 INTERNAL ITERATIONS PER CALL TO SOLUTION ROUTINE
 LINEAR ACCELERATION METHOD            = BCGS      
 MATRIX PRECONDITIONING TYPE           = INCOMPLETE LU       
 MATRIX SCALING APPROACH               = NO SCALING          
 MATRIX REORDERING APPROACH            = ORIGINAL ORDERING        
 NUMBER OF ORTHOGONALIZATIONS          = 0
 HEAD CHANGE CRITERION FOR CLOSURE     =    0.10000E-02
 RESIDUAL CHANGE CRITERION FOR CLOSURE =    0.10000E+00
 RESIDUAL CONVERGENCE OPTION           = 0
 RESIDUAL CONVERGENCE NORM             = INFINITY NORM   
 RELAXATION FACTOR                     =    0.00000E+00



 
    Solving:  Stress period:     1    Time step:     1
 
1
 STRESS PERIOD NO. 1, LENGTH =   160.0000    
 ------------------------------------------
 NUMBER OF TIME STEPS = 16
 MULTIPLIER FOR DELT =     1.000
 INITIAL TIME STEP SIZE =   10.00000    
 
    Solving:  Stress period:     1    Time step:     2
 
 
    Solving:  Stress period:     1    Time step:     3
 
 
    Solving:  Stress period:     1    Time step:     4
 
 
    Solving:  Stress period:     1    Time step:     5
 
 
    Solving:  Stress period:     1    Time step:     6
 
 
    Solving:  Stress period:     1    Time step:     7
 
 
    Solving:  Stress period:     1    Time step:     8
 
 
    Solving:  Stress period:     1    Time step:     9
 
 
    Solving:  Stress period:     1    Time step:    10
 
 
    Solving:  Stress period:     1    Time step:    11
 
 
    Solving:  Stress period:     1    Time step:    12
 
 
    Solving:  Stress period:     1    Time step:    13
 
 
    Solving:  Stress period:     1    Time step:    14
 
 
    Solving:  Stress period:     1    Time step:    15
 
 
    Solving:  Stress period:     1    Time step:    16
 
 
    Solving:  Stress period:     2    Time step:     1
 
1
 STRESS PERIOD NO. 2, LENGTH =   680.0000    
 ------------------------------------------
 NUMBER OF TIME STEPS = 84
 MULTIPLIER FOR DELT =     1.000
 INITIAL TIME STEP SIZE =   8.095238    
 
    Solving:  Stress period:     2    Time step:     2
 
 
    Solving:  Stress period:     2    Time step:     3
 
 
    Solving:  Stress period:     2    Time step:     4
 
 
    Solving:  Stress period:     2    Time step:     5
 
 
    Solving:  Stress period:     2    Time step:     6
 
 
    Solving:  Stress period:     2    Time step:     7
 
 
    Solving:  Stress period:     2    Time step:     8
 
 
    Solving:  Stress period:     2    Time step:     9
 
 
    Solving:  Stress period:     2    Time step:    10
 
 
    Solving:  Stress period:     2    Time step:    11
 
 
    Solving:  Stress period:     2    Time step:    12
 
 
    Solving:  Stress period:     2    Time step:    13
 
 
    Solving:  Stress period:     2    Time step:    14
 
 
    Solving:  Stress period:     2    Time step:    15
 
 
    Solving:  Stress period:     2    Time step:    16
 
 
    Solving:  Stress period:     2    Time step:    17
 
 
    Solving:  Stress period:     2    Time step:    18
 
 
    Solving:  Stress period:     2    Time step:    19
 
 
    Solving:  Stress period:     2    Time step:    20
 
 
    Solving:  Stress period:     2    Time step:    21
 
 
    Solving:  Stress period:     2    Time step:    22
 
 
    Solving:  Stress period:     2    Time step:    23
 
 
    Solving:  Stress period:     2    Time step:    24
 
 
    Solving:  Stress period:     2    Time step:    25
 
 
    Solving:  Stress period:     2    Time step:    26
 
 
    Solving:  Stress period:     2    Time step:    27
 
 
    Solving:  Stress period:     2    Time step:    28
 
 
    Solving:  Stress period:     2    Time step:    29
 
 
    Solving:  Stress period:     2    Time step:    30
 
 
    Solving:  Stress period:     2    Time step:    31
 
 
    Solving:  Stress period:     2    Time step:    32
 
 
    Solving:  Stress period:     2    Time step:    33
 
 
    Solving:  Stress period:     2    Time step:    34
 
 
    Solving:  Stress period:     2    Time step:    35
 
 
    Solving:  Stress period:     2    Time step:    36
 
 
    Solving:  Stress period:     2    Time step:    37
 
 
    Solving:  Stress period:     2    Time step:    38
 
 
    Solving:  Stress period:     2    Time step:    39
 
 
    Solving:  Stress period:     2    Time step:    40
 
 
    Solving:  Stress period:     2    Time step:    41
 
 
    Solving:  Stress period:     2    Time step:    42
 
 
    Solving:  Stress period:     2    Time step:    43
 
 
    Solving:  Stress period:     2    Time step:    44
 
 
    Solving:  Stress period:     2    Time step:    45
 
 
    Solving:  Stress period:     2    Time step:    46
 
 
    Solving:  Stress period:     2    Time step:    47
 
 
    Solving:  Stress period:     2    Time step:    48
 
 
    Solving:  Stress period:     2    Time step:    49
 
 
    Solving:  Stress period:     2    Time step:    50
 
 
    Solving:  Stress period:     2    Time step:    51
 
 
    Solving:  Stress period:     2    Time step:    52
 
 
    Solving:  Stress period:     2    Time step:    53
 
 
    Solving:  Stress period:     2    Time step:    54
 
 
    Solving:  Stress period:     2    Time step:    55
 
 
    Solving:  Stress period:     2    Time step:    56
 
 
    Solving:  Stress period:     2    Time step:    57
 
 
    Solving:  Stress period:     2    Time step:    58
 
 
    Solving:  Stress period:     2    Time step:    59
 
 
    Solving:  Stress period:     2    Time step:    60
 
 
    Solving:  Stress period:     2    Time step:    61
 
 
    Solving:  Stress period:     2    Time step:    62
 
 
    Solving:  Stress period:     2    Time step:    63
 
 
    Solving:  Stress period:     2    Time step:    64
 
 
    Solving:  Stress period:     2    Time step:    65
 
 
    Solving:  Stress period:     2    Time step:    66
 
 
    Solving:  Stress period:     2    Time step:    67
 
 
    Solving:  Stress period:     2    Time step:    68
 
 
    Solving:  Stress period:     2    Time step:    69
 
 
    Solving:  Stress period:     2    Time step:    70
 
 
    Solving:  Stress period:     2    Time step:    71
 
 
    Solving:  Stress period:     2    Time step:    72
 
 
    Solving:  Stress period:     2    Time step:    73
 
 
    Solving:  Stress period:     2    Time step:    74
 
 
    Solving:  Stress period:     2    Time step:    75
 
 
    Solving:  Stress period:     2    Time step:    76
 
 
    Solving:  Stress period:     2    Time step:    77
 
 
    Solving:  Stress period:     2    Time step:    78
 
 
    Solving:  Stress period:     2    Time step:    79
 
 
    Solving:  Stress period:     2    Time step:    80
 
 
    Solving:  Stress period:     2    Time step:    81
 
 
    Solving:  Stress period:     2    Time step:    82
 
 
    Solving:  Stress period:     2    Time step:    83
 
 
    Solving:  Stress period:     2    Time step:    84
 

 MEMORY MANAGER TOTAL STORAGE BY DATA TYPE, IN KILOBYTES
 -------------------------------
                    ALLOCATED   
 DATA TYPE           MEMORY     
 -------------------------------
 Character        4.9730000     
 Logical          2.00000000E-02
 Integer          12.792000     
 Real             56.112000     
 -------------------------------
 Total            73.897000     
 Virtual          0.0000000     
 -------------------------------


 
 Run end date and time (yyyy/mm/dd hh:mm:ss): 2025/02/20 14:30:32
 Elapsed run time:  0.154 Seconds
 Normal termination of simulation.
