                                   MODFLOW 6
                U.S. GEOLOGICAL SURVEY MODULAR HYDROLOGIC MODEL
                             TRANSPORT MODEL (GWT)
                            VERSION 6.6.0 12/20/2024

   MODFLOW 6 compiled Dec 31 2024 17:10:16 with Intel(R) Fortran Intel(R) 64
   Compiler Classic for applications running on Intel(R) 64, Version 2021.7.0
                             Build 20220726_000000

This software has been approved for release by the U.S. Geological 
Survey (USGS). Although the software has been subjected to rigorous 
review, the USGS reserves the right to update the software as needed 
pursuant to further analysis and review. No warranty, expressed or 
implied, is made by the USGS or the U.S. Government as to the 
functionality of the software and related material nor shall the 
fact of release constitute any such warranty. Furthermore, the 
software is released on condition that neither the USGS nor the U.S. 
Government shall be held liable for any damages resulting from its 
authorized or unauthorized use. Also refer to the USGS Water 
Resources Software User Rights Notice for complete use, copyright, 
and distribution information.


As a work of the United States Government, this USGS product is 
in the public domain within the United States. You can copy, 
modify, distribute, and perform the work, even for commercial 
purposes, all without asking permission. Additionally, USGS 
waives copyright and related rights in the work worldwide 
through CC0 1.0 Universal Public Domain Dedication 
(https://creativecommons.org/publicdomain/zero/1.0/).

The following GNU Lesser General Public License (LGPL) libraries
are used in this USGS product:

    SPARSKIT version 2.0
      ilut, luson, and qsplit 
      (https://www-users.cse.umn.edu/~saad/software/SPARSKIT/)

    RCM - Reverse Cuthill McKee Ordering
      (https://people.math.sc.edu/Burkardt/f_src/rcm/rcm.html)

    BLAS - Basic Linear Algebra Subprograms Level 1
      (https://people.math.sc.edu/Burkardt/f_src/blas1_d/blas1_d.html)

    SPARSEKIT - Sparse Matrix Utility Package
      amux, dperm, dvperm, rperm, and cperm
      (https://people.sc.fsu.edu/~jburkardt/f77_src/sparsekit/sparsekit.html)

The following BSD-3 License libraries are used in this USGS product:

    Modern Fortran DAG Library
      Copyright (c) 2018, Jacob Williams
      All rights reserved.
      (https://github.com/jacobwilliams/daglib)

MODFLOW 6 compiler options: /O2 /heap-arrays:0 /fpe:0 /traceback /nologo /fpp
/c /module:win64\mod_mf6\ /object:win64\obj_mf6\

System command used to initiate simulation:
C:\Users\gross.DESKTOP-AIRQM2M\anaconda3\Scripts\mf6.exe

MODFLOW was compiled using uniform precision.

Real Variables
  KIND: 8
  TINY (smallest non-zero value):    2.225074-308
  HUGE (largest value):    1.797693+308
  PRECISION: 15
  SIZE IN BITS: 64

Integer Variables
  KIND: 4
  HUGE (largest value): 2147483647
  SIZE IN BITS: 32

Long Integer Variables
  KIND: 8
  HUGE (largest value): 9223372036854775807
  SIZE IN BITS: 64

Logical Variables
  KIND: 4
  SIZE IN BITS: 32
 
 NAMEFILE OPTIONS:
    FLOWS WILL BE SAVED TO BUDGET FILE SPECIFIED IN OUTPUT CONTROL
 END NAMEFILE OPTIONS:

 DIS -- STRUCTURED GRID DISCRETIZATION PACKAGE, VERSION 2 : 3/27/2014 - INPUT READ FROM MEMPATH: __INPUT__/TRANS/DIS                               


 DSP-- DISPERSION PACKAGE, VERSION 1, 1/24/2018 INPUT READ FROM MEMPATH: __INPUT__/TRANS/DSP                               


 Setting Discretization Options
    Model length unit [0=UND, 1=FEET, 2=METERS, 3=CENTIMETERS] set as 2
 End Setting Discretization Options

 Setting Discretization Dimensions
    NLAY = 1
    NROW = 1
    NCOL = 101
 End Setting Discretization Dimensions

 Setting Discretization Griddata
    DELR set from input file
    DELC set from input file
    TOP set from input file
    BOTM set from input file
 End Setting Discretization Griddata


 FMI -- FLOW MODEL INTERFACE, VERSION 2, 8/17/2023 INPUT READ FROM UNIT 1006


 # File generated by Flopy version 3.9.1 on 02/20/2025 at 14:30:32.
 PROCESSING FMI OPTIONS
 END OF FMI OPTIONS
 PROCESSING FMI PACKAGEDATA

 OPENED ../mf6gwf/flow.hds
 FILE TYPE:DATA(BINARY)   UNIT 1014   STATUS:UNKNOWN             
 FORMAT:UNFORMATTED            ACCESS:STREAM              
 ACTION:READWRITE           

Reading binary file to determine number of records per time step.
Detected 1 unique records in binary file.

 OPENED ../mf6gwf/flow.bud
 FILE TYPE:DATA(BINARY)   UNIT 1015   STATUS:UNKNOWN             
 FORMAT:UNFORMATTED            ACCESS:STREAM              
 ACTION:READWRITE           

Reading budget file to determine number of terms per time step.
    160.000        FLOW-JA-FACE                 
    160.000          DATA-SPDIS NPF             
    160.000            DATA-SAT NPF             
    160.000                 WEL WEL-1           
    160.000                 CHD CHD_0           
Detected 5 unique flow terms in budget file.
 END OF FMI PACKAGEDATA

 ADV-- ADVECTION PACKAGE, VERSION 1, 8/25/2017 INPUT READ FROM UNIT 1008


 # File generated by Flopy version 3.9.1 on 02/20/2025 at 14:30:32.
 PROCESSING ADVECTION OPTIONS
 END OF ADVECTION OPTIONS
 Setting DSP Options
    XT3D formulation [0=INACTIVE, 1=ACTIVE, 3=ACTIVE RHS] set to: 0
 End Setting DSP Options

 Setting DSP Griddata
    ALH set from input file
    ATH1 set from input file
 End Setting DSP Griddata

    STRT set from input file

 MST -- MOBILE STORAGE AND TRANSFER PACKAGE, VERSION 1, 7/29/2020 INPUT READ FROM UNIT 1007


 # File generated by Flopy version 3.9.1 on 02/20/2025 at 14:30:32.
 PROCESSING MOBILE STORAGE AND TRANSFER OPTIONS
    ZERO-ORDER DECAY IS ACTIVE. 
 END OF MOBILE STORAGE AND TRANSFER OPTIONS
 PROCESSING GRIDDATA

   MOBILE DOMAIN POROSITY =  0.3700000    

               DECAY RATE = -0.2000000E-02
 END PROCESSING GRIDDATA

 SSM -- SOURCE-SINK MIXING PACKAGE, VERSION 1, 8/25/2017 INPUT READ FROM UNIT 1010


 # File generated by Flopy version 3.9.1 on 02/20/2025 at 14:30:32.
 PROCESSING SSM OPTIONS
 END OF SSM OPTIONS
 PROCESSING SOURCES
 AUX SOURCE DETECTED.
    USING AUX COLUMN 1 IN PACKAGE WEL-1
 END PROCESSING SOURCES
 OPTIONAL FILEINPUT BLOCK NOT FOUND.  CONTINUING.

The observation utility is active for "TRANS"
 # File generated by Flopy version 3.9.1 on 02/20/2025 at 14:30:32.

Processing observation options:

Text output number of digits of precision set to: 10
The PRINT_INPUT option has been specified.


 OBSERVATIONS READ FROM FILE "trans.obs"
 ----------------------------------------------------------------------------------------------------------------------------------------------------------------------------------------------------------------------------
 NAME                                     TYPE                                       TIME         LOCATION DATA                              OUTPUT FILENAME                                                                 
 ----------------------------------------------------------------------------------------------------------------------------------------------------------------------------------------------------------------------------
 MYOBS                                    CONTINUOUS  CONCENTRATION                  ALL TIMES    "  1 1 52"                                 trans.obs.csv                                                                   
 ----------------------------------------------------------------------------------------------------------------------------------------------------------------------------------------------------------------------------


      THE LAST TIME STEP WILL BE PRINTED
      THE LAST TIME STEP WILL BE PRINTED

start timestep kper="1" kstp="1" mode="normal"


 FMI READING BUDGET TERMS FOR KSTP 1 KPER 1
    160.000        FLOW-JA-FACE                 
    160.000          DATA-SPDIS NPF             
    160.000            DATA-SAT NPF             
    160.000                 WEL WEL-1           
    160.000                 CHD CHD_0           

 FMI READING HEAD FOR KSTP 1 KPER 1

end timestep


start timestep kper="1" kstp="2" mode="normal"


 FMI SETTING BUDGET TERMS FOR KSTP 2 AND KPER 1 TO BUDGET FILE TERMS FROM KSTP 1 AND KPER 1

 FMI SETTING HEAD FOR KSTP 2 AND KPER 1 TO BINARY FILE HEADS FROM KSTP 1 AND KPER 1

end timestep


start timestep kper="1" kstp="3" mode="normal"


 FMI SETTING BUDGET TERMS FOR KSTP 3 AND KPER 1 TO BUDGET FILE TERMS FROM KSTP 1 AND KPER 1

 FMI SETTING HEAD FOR KSTP 3 AND KPER 1 TO BINARY FILE HEADS FROM KSTP 1 AND KPER 1

end timestep


start timestep kper="1" kstp="4" mode="normal"


 FMI SETTING BUDGET TERMS FOR KSTP 4 AND KPER 1 TO BUDGET FILE TERMS FROM KSTP 1 AND KPER 1

 FMI SETTING HEAD FOR KSTP 4 AND KPER 1 TO BINARY FILE HEADS FROM KSTP 1 AND KPER 1

end timestep


start timestep kper="1" kstp="5" mode="normal"


 FMI SETTING BUDGET TERMS FOR KSTP 5 AND KPER 1 TO BUDGET FILE TERMS FROM KSTP 1 AND KPER 1

 FMI SETTING HEAD FOR KSTP 5 AND KPER 1 TO BINARY FILE HEADS FROM KSTP 1 AND KPER 1

end timestep


start timestep kper="1" kstp="6" mode="normal"


 FMI SETTING BUDGET TERMS FOR KSTP 6 AND KPER 1 TO BUDGET FILE TERMS FROM KSTP 1 AND KPER 1

 FMI SETTING HEAD FOR KSTP 6 AND KPER 1 TO BINARY FILE HEADS FROM KSTP 1 AND KPER 1

end timestep


start timestep kper="1" kstp="7" mode="normal"


 FMI SETTING BUDGET TERMS FOR KSTP 7 AND KPER 1 TO BUDGET FILE TERMS FROM KSTP 1 AND KPER 1

 FMI SETTING HEAD FOR KSTP 7 AND KPER 1 TO BINARY FILE HEADS FROM KSTP 1 AND KPER 1

end timestep


start timestep kper="1" kstp="8" mode="normal"


 FMI SETTING BUDGET TERMS FOR KSTP 8 AND KPER 1 TO BUDGET FILE TERMS FROM KSTP 1 AND KPER 1

 FMI SETTING HEAD FOR KSTP 8 AND KPER 1 TO BINARY FILE HEADS FROM KSTP 1 AND KPER 1

end timestep


start timestep kper="1" kstp="9" mode="normal"


 FMI SETTING BUDGET TERMS FOR KSTP 9 AND KPER 1 TO BUDGET FILE TERMS FROM KSTP 1 AND KPER 1

 FMI SETTING HEAD FOR KSTP 9 AND KPER 1 TO BINARY FILE HEADS FROM KSTP 1 AND KPER 1

end timestep


start timestep kper="1" kstp="10" mode="normal"


 FMI SETTING BUDGET TERMS FOR KSTP 10 AND KPER 1 TO BUDGET FILE TERMS FROM KSTP 1 AND KPER 1

 FMI SETTING HEAD FOR KSTP 10 AND KPER 1 TO BINARY FILE HEADS FROM KSTP 1 AND KPER 1

end timestep


start timestep kper="1" kstp="11" mode="normal"


 FMI SETTING BUDGET TERMS FOR KSTP 11 AND KPER 1 TO BUDGET FILE TERMS FROM KSTP 1 AND KPER 1

 FMI SETTING HEAD FOR KSTP 11 AND KPER 1 TO BINARY FILE HEADS FROM KSTP 1 AND KPER 1

end timestep


start timestep kper="1" kstp="12" mode="normal"


 FMI SETTING BUDGET TERMS FOR KSTP 12 AND KPER 1 TO BUDGET FILE TERMS FROM KSTP 1 AND KPER 1

 FMI SETTING HEAD FOR KSTP 12 AND KPER 1 TO BINARY FILE HEADS FROM KSTP 1 AND KPER 1

end timestep


start timestep kper="1" kstp="13" mode="normal"


 FMI SETTING BUDGET TERMS FOR KSTP 13 AND KPER 1 TO BUDGET FILE TERMS FROM KSTP 1 AND KPER 1

 FMI SETTING HEAD FOR KSTP 13 AND KPER 1 TO BINARY FILE HEADS FROM KSTP 1 AND KPER 1

end timestep


start timestep kper="1" kstp="14" mode="normal"


 FMI SETTING BUDGET TERMS FOR KSTP 14 AND KPER 1 TO BUDGET FILE TERMS FROM KSTP 1 AND KPER 1

 FMI SETTING HEAD FOR KSTP 14 AND KPER 1 TO BINARY FILE HEADS FROM KSTP 1 AND KPER 1

end timestep


start timestep kper="1" kstp="15" mode="normal"


 FMI SETTING BUDGET TERMS FOR KSTP 15 AND KPER 1 TO BUDGET FILE TERMS FROM KSTP 1 AND KPER 1

 FMI SETTING HEAD FOR KSTP 15 AND KPER 1 TO BINARY FILE HEADS FROM KSTP 1 AND KPER 1

end timestep


start timestep kper="1" kstp="16" mode="normal"


 FMI SETTING BUDGET TERMS FOR KSTP 16 AND KPER 1 TO BUDGET FILE TERMS FROM KSTP 1 AND KPER 1

 FMI SETTING HEAD FOR KSTP 16 AND KPER 1 TO BINARY FILE HEADS FROM KSTP 1 AND KPER 1
1
  CONCENTRATION IN LAYER   1 AT END OF TIME STEP  16 IN STRESS PERIOD    1
  ---------------------------------------------------------------------------

 ........................................................................................................................................................................................................................................................................................................................................................................................................................................................................................................................................................................................................................................................................................................................................................................................................................................................................................................................................................................................................................................
   1    1.009       1.010       1.011       1.012       1.013       1.014       1.016       1.017       1.018       1.019    
        1.020       1.022       1.023       1.024       1.025       1.026       1.027       1.029       1.030       1.031    
        1.032       1.033       1.034       1.036       1.037       1.038       1.039       1.040       1.042       1.043    
        1.044       1.045       1.046       1.047       1.048       1.050       1.051       1.052       1.053       1.054    
        1.055       1.057       1.058       1.059       1.060       1.061       1.062       1.063       1.064       1.066    
        1.067       1.068       1.069       1.070       1.071       1.072       1.073       1.074       1.075       1.076    
        1.078       1.079       1.080       1.081       1.082       1.083       1.084       1.085       1.086       1.087    
        1.088       1.089       1.090       1.091       1.092       1.093       1.094       1.094       1.095       1.096    
        1.097       1.098       1.099       1.100       1.101       1.101       1.102       1.103       1.104       1.104    
        1.105       1.106       1.106       1.107       1.108       1.108       1.108       1.109       1.109       1.109    
        1.109    


  MASS BUDGET FOR ENTIRE MODEL AT END OF TIME STEP   16, STRESS PERIOD   1
  ---------------------------------------------------------------------------------------------------

     CUMULATIVE MASS      M       RATES FOR THIS TIME STEP      M/T          PACKAGE NAME    
     ------------------                 ------------------------                     ----------------

           IN:                                      IN:
           ---                                      ---
     STORAGE-AQUEOUS =           0.0000       STORAGE-AQUEOUS =           0.0000     MST                              
       DECAY-AQUEOUS =           1.9133         DECAY-AQUEOUS =       1.1958E-02     MST                              
                 WEL =          16.0000                   WEL =           0.1000     SSM_WEL-1                        
                 CHD =           0.0000                   CHD =           0.0000     SSM_CHD_0                        

            TOTAL IN =          17.9133              TOTAL IN =           0.1120

          OUT:                                     OUT:
          ----                                     ----
     STORAGE-AQUEOUS =           6.3651       STORAGE-AQUEOUS =       1.0146E-03     MST                              
       DECAY-AQUEOUS =           0.0000         DECAY-AQUEOUS =           0.0000     MST                              
                 WEL =           0.0000                   WEL =           0.0000     SSM_WEL-1                        
                 CHD =          11.5483                   CHD =           0.1109     SSM_CHD_0                        

           TOTAL OUT =          17.9133             TOTAL OUT =           0.1120

            IN - OUT =      -6.2528E-13              IN - OUT =      -5.1348E-15

 PERCENT DISCREPANCY =          -0.00     PERCENT DISCREPANCY =          -0.00




         TIME SUMMARY AT END OF TIME STEP   16 IN STRESS PERIOD    1
                    SECONDS     MINUTES      HOURS       DAYS        YEARS
                    -----------------------------------------------------------
   TIME STEP LENGTH 8.64000E+05  14400.      240.00      10.000     2.73785E-02
 STRESS PERIOD TIME 1.38240E+07 2.30400E+05  3840.0      160.00     0.43806    
         TOTAL TIME 1.38240E+07 2.30400E+05  3840.0      160.00     0.43806    


end timestep


start timestep kper="2" kstp="1" mode="normal"


 FMI READING BUDGET TERMS FOR KSTP 1 KPER 2
    840.000        FLOW-JA-FACE                 
    840.000          DATA-SPDIS NPF             
    840.000            DATA-SAT NPF             
    840.000                 WEL WEL-1           
    840.000                 CHD CHD_0           

 FMI SETTING HEAD FOR KSTP 1 AND KPER 2 TO BINARY FILE HEADS FROM KSTP 1 AND KPER 1

end timestep


start timestep kper="2" kstp="2" mode="normal"


 FMI SETTING BUDGET TERMS FOR KSTP 2 AND KPER 2 TO BUDGET FILE TERMS FROM KSTP 1 AND KPER 2

 FMI SETTING HEAD FOR KSTP 2 AND KPER 2 TO BINARY FILE HEADS FROM KSTP 1 AND KPER 1

end timestep


start timestep kper="2" kstp="3" mode="normal"


 FMI SETTING BUDGET TERMS FOR KSTP 3 AND KPER 2 TO BUDGET FILE TERMS FROM KSTP 1 AND KPER 2

 FMI SETTING HEAD FOR KSTP 3 AND KPER 2 TO BINARY FILE HEADS FROM KSTP 1 AND KPER 1

end timestep


start timestep kper="2" kstp="4" mode="normal"


 FMI SETTING BUDGET TERMS FOR KSTP 4 AND KPER 2 TO BUDGET FILE TERMS FROM KSTP 1 AND KPER 2

 FMI SETTING HEAD FOR KSTP 4 AND KPER 2 TO BINARY FILE HEADS FROM KSTP 1 AND KPER 1

end timestep


start timestep kper="2" kstp="5" mode="normal"


 FMI SETTING BUDGET TERMS FOR KSTP 5 AND KPER 2 TO BUDGET FILE TERMS FROM KSTP 1 AND KPER 2

 FMI SETTING HEAD FOR KSTP 5 AND KPER 2 TO BINARY FILE HEADS FROM KSTP 1 AND KPER 1

end timestep


start timestep kper="2" kstp="6" mode="normal"


 FMI SETTING BUDGET TERMS FOR KSTP 6 AND KPER 2 TO BUDGET FILE TERMS FROM KSTP 1 AND KPER 2

 FMI SETTING HEAD FOR KSTP 6 AND KPER 2 TO BINARY FILE HEADS FROM KSTP 1 AND KPER 1

end timestep


start timestep kper="2" kstp="7" mode="normal"


 FMI SETTING BUDGET TERMS FOR KSTP 7 AND KPER 2 TO BUDGET FILE TERMS FROM KSTP 1 AND KPER 2

 FMI SETTING HEAD FOR KSTP 7 AND KPER 2 TO BINARY FILE HEADS FROM KSTP 1 AND KPER 1

end timestep


start timestep kper="2" kstp="8" mode="normal"


 FMI SETTING BUDGET TERMS FOR KSTP 8 AND KPER 2 TO BUDGET FILE TERMS FROM KSTP 1 AND KPER 2

 FMI SETTING HEAD FOR KSTP 8 AND KPER 2 TO BINARY FILE HEADS FROM KSTP 1 AND KPER 1

end timestep


start timestep kper="2" kstp="9" mode="normal"


 FMI SETTING BUDGET TERMS FOR KSTP 9 AND KPER 2 TO BUDGET FILE TERMS FROM KSTP 1 AND KPER 2

 FMI SETTING HEAD FOR KSTP 9 AND KPER 2 TO BINARY FILE HEADS FROM KSTP 1 AND KPER 1

end timestep


start timestep kper="2" kstp="10" mode="normal"


 FMI SETTING BUDGET TERMS FOR KSTP 10 AND KPER 2 TO BUDGET FILE TERMS FROM KSTP 1 AND KPER 2

 FMI SETTING HEAD FOR KSTP 10 AND KPER 2 TO BINARY FILE HEADS FROM KSTP 1 AND KPER 1

end timestep


start timestep kper="2" kstp="11" mode="normal"


 FMI SETTING BUDGET TERMS FOR KSTP 11 AND KPER 2 TO BUDGET FILE TERMS FROM KSTP 1 AND KPER 2

 FMI SETTING HEAD FOR KSTP 11 AND KPER 2 TO BINARY FILE HEADS FROM KSTP 1 AND KPER 1

end timestep


start timestep kper="2" kstp="12" mode="normal"


 FMI SETTING BUDGET TERMS FOR KSTP 12 AND KPER 2 TO BUDGET FILE TERMS FROM KSTP 1 AND KPER 2

 FMI SETTING HEAD FOR KSTP 12 AND KPER 2 TO BINARY FILE HEADS FROM KSTP 1 AND KPER 1

end timestep


start timestep kper="2" kstp="13" mode="normal"


 FMI SETTING BUDGET TERMS FOR KSTP 13 AND KPER 2 TO BUDGET FILE TERMS FROM KSTP 1 AND KPER 2

 FMI SETTING HEAD FOR KSTP 13 AND KPER 2 TO BINARY FILE HEADS FROM KSTP 1 AND KPER 1

end timestep


start timestep kper="2" kstp="14" mode="normal"


 FMI SETTING BUDGET TERMS FOR KSTP 14 AND KPER 2 TO BUDGET FILE TERMS FROM KSTP 1 AND KPER 2

 FMI SETTING HEAD FOR KSTP 14 AND KPER 2 TO BINARY FILE HEADS FROM KSTP 1 AND KPER 1

end timestep


start timestep kper="2" kstp="15" mode="normal"


 FMI SETTING BUDGET TERMS FOR KSTP 15 AND KPER 2 TO BUDGET FILE TERMS FROM KSTP 1 AND KPER 2

 FMI SETTING HEAD FOR KSTP 15 AND KPER 2 TO BINARY FILE HEADS FROM KSTP 1 AND KPER 1

end timestep


start timestep kper="2" kstp="16" mode="normal"


 FMI SETTING BUDGET TERMS FOR KSTP 16 AND KPER 2 TO BUDGET FILE TERMS FROM KSTP 1 AND KPER 2

 FMI SETTING HEAD FOR KSTP 16 AND KPER 2 TO BINARY FILE HEADS FROM KSTP 1 AND KPER 1

end timestep


start timestep kper="2" kstp="17" mode="normal"


 FMI SETTING BUDGET TERMS FOR KSTP 17 AND KPER 2 TO BUDGET FILE TERMS FROM KSTP 1 AND KPER 2

 FMI SETTING HEAD FOR KSTP 17 AND KPER 2 TO BINARY FILE HEADS FROM KSTP 1 AND KPER 1

end timestep


start timestep kper="2" kstp="18" mode="normal"


 FMI SETTING BUDGET TERMS FOR KSTP 18 AND KPER 2 TO BUDGET FILE TERMS FROM KSTP 1 AND KPER 2

 FMI SETTING HEAD FOR KSTP 18 AND KPER 2 TO BINARY FILE HEADS FROM KSTP 1 AND KPER 1

end timestep


start timestep kper="2" kstp="19" mode="normal"


 FMI SETTING BUDGET TERMS FOR KSTP 19 AND KPER 2 TO BUDGET FILE TERMS FROM KSTP 1 AND KPER 2

 FMI SETTING HEAD FOR KSTP 19 AND KPER 2 TO BINARY FILE HEADS FROM KSTP 1 AND KPER 1

end timestep


start timestep kper="2" kstp="20" mode="normal"


 FMI SETTING BUDGET TERMS FOR KSTP 20 AND KPER 2 TO BUDGET FILE TERMS FROM KSTP 1 AND KPER 2

 FMI SETTING HEAD FOR KSTP 20 AND KPER 2 TO BINARY FILE HEADS FROM KSTP 1 AND KPER 1

end timestep


start timestep kper="2" kstp="21" mode="normal"


 FMI SETTING BUDGET TERMS FOR KSTP 21 AND KPER 2 TO BUDGET FILE TERMS FROM KSTP 1 AND KPER 2

 FMI SETTING HEAD FOR KSTP 21 AND KPER 2 TO BINARY FILE HEADS FROM KSTP 1 AND KPER 1

end timestep


start timestep kper="2" kstp="22" mode="normal"


 FMI SETTING BUDGET TERMS FOR KSTP 22 AND KPER 2 TO BUDGET FILE TERMS FROM KSTP 1 AND KPER 2

 FMI SETTING HEAD FOR KSTP 22 AND KPER 2 TO BINARY FILE HEADS FROM KSTP 1 AND KPER 1

end timestep


start timestep kper="2" kstp="23" mode="normal"


 FMI SETTING BUDGET TERMS FOR KSTP 23 AND KPER 2 TO BUDGET FILE TERMS FROM KSTP 1 AND KPER 2

 FMI SETTING HEAD FOR KSTP 23 AND KPER 2 TO BINARY FILE HEADS FROM KSTP 1 AND KPER 1

end timestep


start timestep kper="2" kstp="24" mode="normal"


 FMI SETTING BUDGET TERMS FOR KSTP 24 AND KPER 2 TO BUDGET FILE TERMS FROM KSTP 1 AND KPER 2

 FMI SETTING HEAD FOR KSTP 24 AND KPER 2 TO BINARY FILE HEADS FROM KSTP 1 AND KPER 1

end timestep


start timestep kper="2" kstp="25" mode="normal"


 FMI SETTING BUDGET TERMS FOR KSTP 25 AND KPER 2 TO BUDGET FILE TERMS FROM KSTP 1 AND KPER 2

 FMI SETTING HEAD FOR KSTP 25 AND KPER 2 TO BINARY FILE HEADS FROM KSTP 1 AND KPER 1

end timestep


start timestep kper="2" kstp="26" mode="normal"


 FMI SETTING BUDGET TERMS FOR KSTP 26 AND KPER 2 TO BUDGET FILE TERMS FROM KSTP 1 AND KPER 2

 FMI SETTING HEAD FOR KSTP 26 AND KPER 2 TO BINARY FILE HEADS FROM KSTP 1 AND KPER 1

end timestep


start timestep kper="2" kstp="27" mode="normal"


 FMI SETTING BUDGET TERMS FOR KSTP 27 AND KPER 2 TO BUDGET FILE TERMS FROM KSTP 1 AND KPER 2

 FMI SETTING HEAD FOR KSTP 27 AND KPER 2 TO BINARY FILE HEADS FROM KSTP 1 AND KPER 1

end timestep


start timestep kper="2" kstp="28" mode="normal"


 FMI SETTING BUDGET TERMS FOR KSTP 28 AND KPER 2 TO BUDGET FILE TERMS FROM KSTP 1 AND KPER 2

 FMI SETTING HEAD FOR KSTP 28 AND KPER 2 TO BINARY FILE HEADS FROM KSTP 1 AND KPER 1

end timestep


start timestep kper="2" kstp="29" mode="normal"


 FMI SETTING BUDGET TERMS FOR KSTP 29 AND KPER 2 TO BUDGET FILE TERMS FROM KSTP 1 AND KPER 2

 FMI SETTING HEAD FOR KSTP 29 AND KPER 2 TO BINARY FILE HEADS FROM KSTP 1 AND KPER 1

end timestep


start timestep kper="2" kstp="30" mode="normal"


 FMI SETTING BUDGET TERMS FOR KSTP 30 AND KPER 2 TO BUDGET FILE TERMS FROM KSTP 1 AND KPER 2

 FMI SETTING HEAD FOR KSTP 30 AND KPER 2 TO BINARY FILE HEADS FROM KSTP 1 AND KPER 1

end timestep


start timestep kper="2" kstp="31" mode="normal"


 FMI SETTING BUDGET TERMS FOR KSTP 31 AND KPER 2 TO BUDGET FILE TERMS FROM KSTP 1 AND KPER 2

 FMI SETTING HEAD FOR KSTP 31 AND KPER 2 TO BINARY FILE HEADS FROM KSTP 1 AND KPER 1

end timestep


start timestep kper="2" kstp="32" mode="normal"


 FMI SETTING BUDGET TERMS FOR KSTP 32 AND KPER 2 TO BUDGET FILE TERMS FROM KSTP 1 AND KPER 2

 FMI SETTING HEAD FOR KSTP 32 AND KPER 2 TO BINARY FILE HEADS FROM KSTP 1 AND KPER 1

end timestep


start timestep kper="2" kstp="33" mode="normal"


 FMI SETTING BUDGET TERMS FOR KSTP 33 AND KPER 2 TO BUDGET FILE TERMS FROM KSTP 1 AND KPER 2

 FMI SETTING HEAD FOR KSTP 33 AND KPER 2 TO BINARY FILE HEADS FROM KSTP 1 AND KPER 1

end timestep


start timestep kper="2" kstp="34" mode="normal"


 FMI SETTING BUDGET TERMS FOR KSTP 34 AND KPER 2 TO BUDGET FILE TERMS FROM KSTP 1 AND KPER 2

 FMI SETTING HEAD FOR KSTP 34 AND KPER 2 TO BINARY FILE HEADS FROM KSTP 1 AND KPER 1

end timestep


start timestep kper="2" kstp="35" mode="normal"


 FMI SETTING BUDGET TERMS FOR KSTP 35 AND KPER 2 TO BUDGET FILE TERMS FROM KSTP 1 AND KPER 2

 FMI SETTING HEAD FOR KSTP 35 AND KPER 2 TO BINARY FILE HEADS FROM KSTP 1 AND KPER 1

end timestep


start timestep kper="2" kstp="36" mode="normal"


 FMI SETTING BUDGET TERMS FOR KSTP 36 AND KPER 2 TO BUDGET FILE TERMS FROM KSTP 1 AND KPER 2

 FMI SETTING HEAD FOR KSTP 36 AND KPER 2 TO BINARY FILE HEADS FROM KSTP 1 AND KPER 1

end timestep


start timestep kper="2" kstp="37" mode="normal"


 FMI SETTING BUDGET TERMS FOR KSTP 37 AND KPER 2 TO BUDGET FILE TERMS FROM KSTP 1 AND KPER 2

 FMI SETTING HEAD FOR KSTP 37 AND KPER 2 TO BINARY FILE HEADS FROM KSTP 1 AND KPER 1

end timestep


start timestep kper="2" kstp="38" mode="normal"


 FMI SETTING BUDGET TERMS FOR KSTP 38 AND KPER 2 TO BUDGET FILE TERMS FROM KSTP 1 AND KPER 2

 FMI SETTING HEAD FOR KSTP 38 AND KPER 2 TO BINARY FILE HEADS FROM KSTP 1 AND KPER 1

end timestep


start timestep kper="2" kstp="39" mode="normal"


 FMI SETTING BUDGET TERMS FOR KSTP 39 AND KPER 2 TO BUDGET FILE TERMS FROM KSTP 1 AND KPER 2

 FMI SETTING HEAD FOR KSTP 39 AND KPER 2 TO BINARY FILE HEADS FROM KSTP 1 AND KPER 1

end timestep


start timestep kper="2" kstp="40" mode="normal"


 FMI SETTING BUDGET TERMS FOR KSTP 40 AND KPER 2 TO BUDGET FILE TERMS FROM KSTP 1 AND KPER 2

 FMI SETTING HEAD FOR KSTP 40 AND KPER 2 TO BINARY FILE HEADS FROM KSTP 1 AND KPER 1

end timestep


start timestep kper="2" kstp="41" mode="normal"


 FMI SETTING BUDGET TERMS FOR KSTP 41 AND KPER 2 TO BUDGET FILE TERMS FROM KSTP 1 AND KPER 2

 FMI SETTING HEAD FOR KSTP 41 AND KPER 2 TO BINARY FILE HEADS FROM KSTP 1 AND KPER 1

end timestep


start timestep kper="2" kstp="42" mode="normal"


 FMI SETTING BUDGET TERMS FOR KSTP 42 AND KPER 2 TO BUDGET FILE TERMS FROM KSTP 1 AND KPER 2

 FMI SETTING HEAD FOR KSTP 42 AND KPER 2 TO BINARY FILE HEADS FROM KSTP 1 AND KPER 1

end timestep


start timestep kper="2" kstp="43" mode="normal"


 FMI SETTING BUDGET TERMS FOR KSTP 43 AND KPER 2 TO BUDGET FILE TERMS FROM KSTP 1 AND KPER 2

 FMI SETTING HEAD FOR KSTP 43 AND KPER 2 TO BINARY FILE HEADS FROM KSTP 1 AND KPER 1

end timestep


start timestep kper="2" kstp="44" mode="normal"


 FMI SETTING BUDGET TERMS FOR KSTP 44 AND KPER 2 TO BUDGET FILE TERMS FROM KSTP 1 AND KPER 2

 FMI SETTING HEAD FOR KSTP 44 AND KPER 2 TO BINARY FILE HEADS FROM KSTP 1 AND KPER 1

end timestep


start timestep kper="2" kstp="45" mode="normal"


 FMI SETTING BUDGET TERMS FOR KSTP 45 AND KPER 2 TO BUDGET FILE TERMS FROM KSTP 1 AND KPER 2

 FMI SETTING HEAD FOR KSTP 45 AND KPER 2 TO BINARY FILE HEADS FROM KSTP 1 AND KPER 1

end timestep


start timestep kper="2" kstp="46" mode="normal"


 FMI SETTING BUDGET TERMS FOR KSTP 46 AND KPER 2 TO BUDGET FILE TERMS FROM KSTP 1 AND KPER 2

 FMI SETTING HEAD FOR KSTP 46 AND KPER 2 TO BINARY FILE HEADS FROM KSTP 1 AND KPER 1

end timestep


start timestep kper="2" kstp="47" mode="normal"


 FMI SETTING BUDGET TERMS FOR KSTP 47 AND KPER 2 TO BUDGET FILE TERMS FROM KSTP 1 AND KPER 2

 FMI SETTING HEAD FOR KSTP 47 AND KPER 2 TO BINARY FILE HEADS FROM KSTP 1 AND KPER 1

end timestep


start timestep kper="2" kstp="48" mode="normal"


 FMI SETTING BUDGET TERMS FOR KSTP 48 AND KPER 2 TO BUDGET FILE TERMS FROM KSTP 1 AND KPER 2

 FMI SETTING HEAD FOR KSTP 48 AND KPER 2 TO BINARY FILE HEADS FROM KSTP 1 AND KPER 1

end timestep


start timestep kper="2" kstp="49" mode="normal"


 FMI SETTING BUDGET TERMS FOR KSTP 49 AND KPER 2 TO BUDGET FILE TERMS FROM KSTP 1 AND KPER 2

 FMI SETTING HEAD FOR KSTP 49 AND KPER 2 TO BINARY FILE HEADS FROM KSTP 1 AND KPER 1

end timestep


start timestep kper="2" kstp="50" mode="normal"


 FMI SETTING BUDGET TERMS FOR KSTP 50 AND KPER 2 TO BUDGET FILE TERMS FROM KSTP 1 AND KPER 2

 FMI SETTING HEAD FOR KSTP 50 AND KPER 2 TO BINARY FILE HEADS FROM KSTP 1 AND KPER 1

end timestep


start timestep kper="2" kstp="51" mode="normal"


 FMI SETTING BUDGET TERMS FOR KSTP 51 AND KPER 2 TO BUDGET FILE TERMS FROM KSTP 1 AND KPER 2

 FMI SETTING HEAD FOR KSTP 51 AND KPER 2 TO BINARY FILE HEADS FROM KSTP 1 AND KPER 1

end timestep


start timestep kper="2" kstp="52" mode="normal"


 FMI SETTING BUDGET TERMS FOR KSTP 52 AND KPER 2 TO BUDGET FILE TERMS FROM KSTP 1 AND KPER 2

 FMI SETTING HEAD FOR KSTP 52 AND KPER 2 TO BINARY FILE HEADS FROM KSTP 1 AND KPER 1

end timestep


start timestep kper="2" kstp="53" mode="normal"


 FMI SETTING BUDGET TERMS FOR KSTP 53 AND KPER 2 TO BUDGET FILE TERMS FROM KSTP 1 AND KPER 2

 FMI SETTING HEAD FOR KSTP 53 AND KPER 2 TO BINARY FILE HEADS FROM KSTP 1 AND KPER 1

end timestep


start timestep kper="2" kstp="54" mode="normal"


 FMI SETTING BUDGET TERMS FOR KSTP 54 AND KPER 2 TO BUDGET FILE TERMS FROM KSTP 1 AND KPER 2

 FMI SETTING HEAD FOR KSTP 54 AND KPER 2 TO BINARY FILE HEADS FROM KSTP 1 AND KPER 1

end timestep


start timestep kper="2" kstp="55" mode="normal"


 FMI SETTING BUDGET TERMS FOR KSTP 55 AND KPER 2 TO BUDGET FILE TERMS FROM KSTP 1 AND KPER 2

 FMI SETTING HEAD FOR KSTP 55 AND KPER 2 TO BINARY FILE HEADS FROM KSTP 1 AND KPER 1

end timestep


start timestep kper="2" kstp="56" mode="normal"


 FMI SETTING BUDGET TERMS FOR KSTP 56 AND KPER 2 TO BUDGET FILE TERMS FROM KSTP 1 AND KPER 2

 FMI SETTING HEAD FOR KSTP 56 AND KPER 2 TO BINARY FILE HEADS FROM KSTP 1 AND KPER 1

end timestep


start timestep kper="2" kstp="57" mode="normal"


 FMI SETTING BUDGET TERMS FOR KSTP 57 AND KPER 2 TO BUDGET FILE TERMS FROM KSTP 1 AND KPER 2

 FMI SETTING HEAD FOR KSTP 57 AND KPER 2 TO BINARY FILE HEADS FROM KSTP 1 AND KPER 1

end timestep


start timestep kper="2" kstp="58" mode="normal"


 FMI SETTING BUDGET TERMS FOR KSTP 58 AND KPER 2 TO BUDGET FILE TERMS FROM KSTP 1 AND KPER 2

 FMI SETTING HEAD FOR KSTP 58 AND KPER 2 TO BINARY FILE HEADS FROM KSTP 1 AND KPER 1

end timestep


start timestep kper="2" kstp="59" mode="normal"


 FMI SETTING BUDGET TERMS FOR KSTP 59 AND KPER 2 TO BUDGET FILE TERMS FROM KSTP 1 AND KPER 2

 FMI SETTING HEAD FOR KSTP 59 AND KPER 2 TO BINARY FILE HEADS FROM KSTP 1 AND KPER 1

end timestep


start timestep kper="2" kstp="60" mode="normal"


 FMI SETTING BUDGET TERMS FOR KSTP 60 AND KPER 2 TO BUDGET FILE TERMS FROM KSTP 1 AND KPER 2

 FMI SETTING HEAD FOR KSTP 60 AND KPER 2 TO BINARY FILE HEADS FROM KSTP 1 AND KPER 1

end timestep


start timestep kper="2" kstp="61" mode="normal"


 FMI SETTING BUDGET TERMS FOR KSTP 61 AND KPER 2 TO BUDGET FILE TERMS FROM KSTP 1 AND KPER 2

 FMI SETTING HEAD FOR KSTP 61 AND KPER 2 TO BINARY FILE HEADS FROM KSTP 1 AND KPER 1

end timestep


start timestep kper="2" kstp="62" mode="normal"


 FMI SETTING BUDGET TERMS FOR KSTP 62 AND KPER 2 TO BUDGET FILE TERMS FROM KSTP 1 AND KPER 2

 FMI SETTING HEAD FOR KSTP 62 AND KPER 2 TO BINARY FILE HEADS FROM KSTP 1 AND KPER 1

end timestep


start timestep kper="2" kstp="63" mode="normal"


 FMI SETTING BUDGET TERMS FOR KSTP 63 AND KPER 2 TO BUDGET FILE TERMS FROM KSTP 1 AND KPER 2

 FMI SETTING HEAD FOR KSTP 63 AND KPER 2 TO BINARY FILE HEADS FROM KSTP 1 AND KPER 1

end timestep


start timestep kper="2" kstp="64" mode="normal"


 FMI SETTING BUDGET TERMS FOR KSTP 64 AND KPER 2 TO BUDGET FILE TERMS FROM KSTP 1 AND KPER 2

 FMI SETTING HEAD FOR KSTP 64 AND KPER 2 TO BINARY FILE HEADS FROM KSTP 1 AND KPER 1

end timestep


start timestep kper="2" kstp="65" mode="normal"


 FMI SETTING BUDGET TERMS FOR KSTP 65 AND KPER 2 TO BUDGET FILE TERMS FROM KSTP 1 AND KPER 2

 FMI SETTING HEAD FOR KSTP 65 AND KPER 2 TO BINARY FILE HEADS FROM KSTP 1 AND KPER 1

end timestep


start timestep kper="2" kstp="66" mode="normal"


 FMI SETTING BUDGET TERMS FOR KSTP 66 AND KPER 2 TO BUDGET FILE TERMS FROM KSTP 1 AND KPER 2

 FMI SETTING HEAD FOR KSTP 66 AND KPER 2 TO BINARY FILE HEADS FROM KSTP 1 AND KPER 1

end timestep


start timestep kper="2" kstp="67" mode="normal"


 FMI SETTING BUDGET TERMS FOR KSTP 67 AND KPER 2 TO BUDGET FILE TERMS FROM KSTP 1 AND KPER 2

 FMI SETTING HEAD FOR KSTP 67 AND KPER 2 TO BINARY FILE HEADS FROM KSTP 1 AND KPER 1

end timestep


start timestep kper="2" kstp="68" mode="normal"


 FMI SETTING BUDGET TERMS FOR KSTP 68 AND KPER 2 TO BUDGET FILE TERMS FROM KSTP 1 AND KPER 2

 FMI SETTING HEAD FOR KSTP 68 AND KPER 2 TO BINARY FILE HEADS FROM KSTP 1 AND KPER 1

end timestep


start timestep kper="2" kstp="69" mode="normal"


 FMI SETTING BUDGET TERMS FOR KSTP 69 AND KPER 2 TO BUDGET FILE TERMS FROM KSTP 1 AND KPER 2

 FMI SETTING HEAD FOR KSTP 69 AND KPER 2 TO BINARY FILE HEADS FROM KSTP 1 AND KPER 1

end timestep


start timestep kper="2" kstp="70" mode="normal"


 FMI SETTING BUDGET TERMS FOR KSTP 70 AND KPER 2 TO BUDGET FILE TERMS FROM KSTP 1 AND KPER 2

 FMI SETTING HEAD FOR KSTP 70 AND KPER 2 TO BINARY FILE HEADS FROM KSTP 1 AND KPER 1

end timestep


start timestep kper="2" kstp="71" mode="normal"


 FMI SETTING BUDGET TERMS FOR KSTP 71 AND KPER 2 TO BUDGET FILE TERMS FROM KSTP 1 AND KPER 2

 FMI SETTING HEAD FOR KSTP 71 AND KPER 2 TO BINARY FILE HEADS FROM KSTP 1 AND KPER 1

end timestep


start timestep kper="2" kstp="72" mode="normal"


 FMI SETTING BUDGET TERMS FOR KSTP 72 AND KPER 2 TO BUDGET FILE TERMS FROM KSTP 1 AND KPER 2

 FMI SETTING HEAD FOR KSTP 72 AND KPER 2 TO BINARY FILE HEADS FROM KSTP 1 AND KPER 1

end timestep


start timestep kper="2" kstp="73" mode="normal"


 FMI SETTING BUDGET TERMS FOR KSTP 73 AND KPER 2 TO BUDGET FILE TERMS FROM KSTP 1 AND KPER 2

 FMI SETTING HEAD FOR KSTP 73 AND KPER 2 TO BINARY FILE HEADS FROM KSTP 1 AND KPER 1

end timestep


start timestep kper="2" kstp="74" mode="normal"


 FMI SETTING BUDGET TERMS FOR KSTP 74 AND KPER 2 TO BUDGET FILE TERMS FROM KSTP 1 AND KPER 2

 FMI SETTING HEAD FOR KSTP 74 AND KPER 2 TO BINARY FILE HEADS FROM KSTP 1 AND KPER 1

end timestep


start timestep kper="2" kstp="75" mode="normal"


 FMI SETTING BUDGET TERMS FOR KSTP 75 AND KPER 2 TO BUDGET FILE TERMS FROM KSTP 1 AND KPER 2

 FMI SETTING HEAD FOR KSTP 75 AND KPER 2 TO BINARY FILE HEADS FROM KSTP 1 AND KPER 1

end timestep


start timestep kper="2" kstp="76" mode="normal"


 FMI SETTING BUDGET TERMS FOR KSTP 76 AND KPER 2 TO BUDGET FILE TERMS FROM KSTP 1 AND KPER 2

 FMI SETTING HEAD FOR KSTP 76 AND KPER 2 TO BINARY FILE HEADS FROM KSTP 1 AND KPER 1

end timestep


start timestep kper="2" kstp="77" mode="normal"


 FMI SETTING BUDGET TERMS FOR KSTP 77 AND KPER 2 TO BUDGET FILE TERMS FROM KSTP 1 AND KPER 2

 FMI SETTING HEAD FOR KSTP 77 AND KPER 2 TO BINARY FILE HEADS FROM KSTP 1 AND KPER 1

end timestep


start timestep kper="2" kstp="78" mode="normal"


 FMI SETTING BUDGET TERMS FOR KSTP 78 AND KPER 2 TO BUDGET FILE TERMS FROM KSTP 1 AND KPER 2

 FMI SETTING HEAD FOR KSTP 78 AND KPER 2 TO BINARY FILE HEADS FROM KSTP 1 AND KPER 1

end timestep


start timestep kper="2" kstp="79" mode="normal"


 FMI SETTING BUDGET TERMS FOR KSTP 79 AND KPER 2 TO BUDGET FILE TERMS FROM KSTP 1 AND KPER 2

 FMI SETTING HEAD FOR KSTP 79 AND KPER 2 TO BINARY FILE HEADS FROM KSTP 1 AND KPER 1

end timestep


start timestep kper="2" kstp="80" mode="normal"


 FMI SETTING BUDGET TERMS FOR KSTP 80 AND KPER 2 TO BUDGET FILE TERMS FROM KSTP 1 AND KPER 2

 FMI SETTING HEAD FOR KSTP 80 AND KPER 2 TO BINARY FILE HEADS FROM KSTP 1 AND KPER 1

end timestep


start timestep kper="2" kstp="81" mode="normal"


 FMI SETTING BUDGET TERMS FOR KSTP 81 AND KPER 2 TO BUDGET FILE TERMS FROM KSTP 1 AND KPER 2

 FMI SETTING HEAD FOR KSTP 81 AND KPER 2 TO BINARY FILE HEADS FROM KSTP 1 AND KPER 1

end timestep


start timestep kper="2" kstp="82" mode="normal"


 FMI SETTING BUDGET TERMS FOR KSTP 82 AND KPER 2 TO BUDGET FILE TERMS FROM KSTP 1 AND KPER 2

 FMI SETTING HEAD FOR KSTP 82 AND KPER 2 TO BINARY FILE HEADS FROM KSTP 1 AND KPER 1

end timestep


start timestep kper="2" kstp="83" mode="normal"


 FMI SETTING BUDGET TERMS FOR KSTP 83 AND KPER 2 TO BUDGET FILE TERMS FROM KSTP 1 AND KPER 2

 FMI SETTING HEAD FOR KSTP 83 AND KPER 2 TO BINARY FILE HEADS FROM KSTP 1 AND KPER 1

end timestep


start timestep kper="2" kstp="84" mode="normal"


 FMI SETTING BUDGET TERMS FOR KSTP 84 AND KPER 2 TO BUDGET FILE TERMS FROM KSTP 1 AND KPER 2

 FMI SETTING HEAD FOR KSTP 84 AND KPER 2 TO BINARY FILE HEADS FROM KSTP 1 AND KPER 1
1
  CONCENTRATION IN LAYER   1 AT END OF TIME STEP  84 IN STRESS PERIOD    2
  ---------------------------------------------------------------------------

 ........................................................................................................................................................................................................................................................................................................................................................................................................................................................................................................................................................................................................................................................................................................................................................................................................................................................................................................................................................................................................................................
   1   8.5840E-03  9.7680E-03  1.0952E-02  1.2136E-02  1.3320E-02  1.4504E-02  1.5688E-02  1.6872E-02  1.8056E-02  1.9240E-02
       2.0424E-02  2.1608E-02  2.2792E-02  2.3976E-02  2.5160E-02  2.6344E-02  2.7528E-02  2.8712E-02  2.9896E-02  3.1080E-02
       3.2264E-02  3.3448E-02  3.4632E-02  3.5816E-02  3.7000E-02  3.8184E-02  3.9368E-02  4.0552E-02  4.1736E-02  4.2920E-02
       4.4104E-02  4.5288E-02  4.6472E-02  4.7656E-02  4.8840E-02  5.0024E-02  5.1207E-02  5.2391E-02  5.3575E-02  5.4759E-02
       5.5943E-02  5.7127E-02  5.8311E-02  5.9494E-02  6.0678E-02  6.1862E-02  6.3046E-02  6.4229E-02  6.5413E-02  6.6596E-02
       6.7780E-02  6.8963E-02  7.0146E-02  7.1329E-02  7.2512E-02  7.3695E-02  7.4877E-02  7.6059E-02  7.7241E-02  7.8423E-02
       7.9604E-02  8.0785E-02  8.1966E-02  8.3146E-02  8.4325E-02  8.5503E-02  8.6680E-02  8.7857E-02  8.9032E-02  9.0206E-02
       9.1378E-02  9.2548E-02  9.3716E-02  9.4881E-02  9.6044E-02  9.7203E-02  9.8358E-02  9.9508E-02  0.1007      0.1018    
       0.1029      0.1040      0.1052      0.1063      0.1074      0.1084      0.1095      0.1105      0.1115      0.1125    
       0.1135      0.1144      0.1153      0.1161      0.1168      0.1175      0.1182      0.1187      0.1191      0.1194    
       0.1196    


  MASS BUDGET FOR ENTIRE MODEL AT END OF TIME STEP   84, STRESS PERIOD   2
  ---------------------------------------------------------------------------------------------------

     CUMULATIVE MASS      M       RATES FOR THIS TIME STEP      M/T          PACKAGE NAME    
     ------------------                 ------------------------                     ----------------

           IN:                                      IN:
           ---                                      ---
     STORAGE-AQUEOUS =           5.9630       STORAGE-AQUEOUS =       2.8017E-10     MST                              
       DECAY-AQUEOUS =          10.0451         DECAY-AQUEOUS =       1.1958E-02     MST                              
                 WEL =          16.0000                   WEL =           0.0000     SSM_WEL-1                        
                 CHD =           0.0000                   CHD =           0.0000     SSM_CHD_0                        

            TOTAL IN =          32.0080              TOTAL IN =       1.1958E-02

          OUT:                                     OUT:
          ----                                     ----
     STORAGE-AQUEOUS =           6.3651       STORAGE-AQUEOUS =           0.0000     MST                              
       DECAY-AQUEOUS =           0.0000         DECAY-AQUEOUS =           0.0000     MST                              
                 WEL =           0.0000                   WEL =           0.0000     SSM_WEL-1                        
                 CHD =          25.6429                   CHD =       1.1958E-02     SSM_CHD_0                        

           TOTAL OUT =          32.0080             TOTAL OUT =       1.1958E-02

            IN - OUT =      -7.9754E-06              IN - OUT =      -1.2037E-08

 PERCENT DISCREPANCY =          -0.00     PERCENT DISCREPANCY =          -0.00




         TIME SUMMARY AT END OF TIME STEP   84 IN STRESS PERIOD    2
                    SECONDS     MINUTES      HOURS       DAYS        YEARS
                    -----------------------------------------------------------
   TIME STEP LENGTH 6.99429E+05  11657.      194.29      8.0952     2.21636E-02
 STRESS PERIOD TIME 5.87520E+07 9.79200E+05  16320.      680.00      1.8617    
         TOTAL TIME 7.25760E+07 1.20960E+06  20160.      840.00      2.2998    


end timestep

