                                   MODFLOW 6
                U.S. GEOLOGICAL SURVEY MODULAR HYDROLOGIC MODEL
                            VERSION 6.6.1 02/10/2025

   MODFLOW 6 compiled Feb 14 2025 13:40:10 with Intel(R) Fortran Intel(R) 64
   Compiler Classic for applications running on Intel(R) 64, Version 2021.7.0
                             Build 20220726_000000

This software has been approved for release by the U.S. Geological 
Survey (USGS). Although the software has been subjected to rigorous 
review, the USGS reserves the right to update the software as needed 
pursuant to further analysis and review. No warranty, expressed or 
implied, is made by the USGS or the U.S. Government as to the 
functionality of the software and related material nor shall the 
fact of release constitute any such warranty. Furthermore, the 
software is released on condition that neither the USGS nor the U.S. 
Government shall be held liable for any damages resulting from its 
authorized or unauthorized use. Also refer to the USGS Water 
Resources Software User Rights Notice for complete use, copyright, 
and distribution information.


As a work of the United States Government, this USGS product is 
in the public domain within the United States. You can copy, 
modify, distribute, and perform the work, even for commercial 
purposes, all without asking permission. Additionally, USGS 
waives copyright and related rights in the work worldwide 
through CC0 1.0 Universal Public Domain Dedication 
(https://creativecommons.org/publicdomain/zero/1.0/).

The following GNU Lesser General Public License (LGPL) libraries
are used in this USGS product:

    SPARSKIT version 2.0
      ilut, luson, and qsplit 
      (https://www-users.cse.umn.edu/~saad/software/SPARSKIT/)

    RCM - Reverse Cuthill McKee Ordering
      (https://people.math.sc.edu/Burkardt/f_src/rcm/rcm.html)

    BLAS - Basic Linear Algebra Subprograms Level 1
      (https://people.math.sc.edu/Burkardt/f_src/blas1_d/blas1_d.html)

    SPARSEKIT - Sparse Matrix Utility Package
      amux, dperm, dvperm, rperm, and cperm
      (https://people.sc.fsu.edu/~jburkardt/f77_src/sparsekit/sparsekit.html)

The following BSD-3 License libraries are used in this USGS product:

    Modern Fortran DAG Library
      Copyright (c) 2018, Jacob Williams
      All rights reserved.
      (https://github.com/jacobwilliams/daglib)

MODFLOW 6 compiler options: /O2 /heap-arrays:0 /fpe:0 /traceback /nologo /fpp
/c /module:win64\mod_mf6\ /object:win64\obj_mf6\

System command used to initiate simulation:
C:\Users\gross.DESKTOP-AIRQM2M\anaconda3\Scripts\mf6.exe

MODFLOW was compiled using uniform precision.

Real Variables
  KIND: 8
  TINY (smallest non-zero value):    2.225074-308
  HUGE (largest value):    1.797693+308
  PRECISION: 15
  SIZE IN BITS: 64

Integer Variables
  KIND: 4
  HUGE (largest value): 2147483647
  SIZE IN BITS: 32

Long Integer Variables
  KIND: 8
  HUGE (largest value): 9223372036854775807
  SIZE IN BITS: 64

Logical Variables
  KIND: 4
  SIZE IN BITS: 32
 

 OPENED mfsim.nam
 FILE TYPE:NAM6               UNIT 1001   STATUS:OLD                 
 FORMAT:FORMATTED              ACCESS:SEQUENTIAL          
 ACTION:READ                

 # File generated by Flopy version 3.9.1 on 04/08/2025 at 17:03:33.

 OPENED 07_ex-gwf-u1gwfgwf.tdis
 FILE TYPE:TDIS6              UNIT 1002   STATUS:OLD                 
 FORMAT:FORMATTED              ACCESS:SEQUENTIAL          
 ACTION:READ                

 # File generated by Flopy version 3.9.1 on 04/08/2025 at 17:03:33.

 OPENED outer.nam
 FILE TYPE:GWF6               UNIT 1003   STATUS:OLD                 
 FORMAT:FORMATTED              ACCESS:SEQUENTIAL          
 ACTION:READ                

 # File generated by Flopy version 3.9.1 on 04/08/2025 at 17:03:33.

 OPENED outer.dis
 FILE TYPE:DIS6               UNIT 1004   STATUS:OLD                 
 FORMAT:FORMATTED              ACCESS:SEQUENTIAL          
 ACTION:READ                

 # File generated by Flopy version 3.9.1 on 04/08/2025 at 17:03:33.

 OPENED outer.npf
 FILE TYPE:NPF6               UNIT 1005   STATUS:OLD                 
 FORMAT:FORMATTED              ACCESS:SEQUENTIAL          
 ACTION:READ                

 # File generated by Flopy version 3.9.1 on 04/08/2025 at 17:03:33.

 OPENED outer.ic
 FILE TYPE:IC6                UNIT 1006   STATUS:OLD                 
 FORMAT:FORMATTED              ACCESS:SEQUENTIAL          
 ACTION:READ                

 # File generated by Flopy version 3.9.1 on 04/08/2025 at 17:03:33.

 OPENED outer.oc
 FILE TYPE:OC6       UNIT 1007   STATUS:OLD                 
 FORMAT:FORMATTED              ACCESS:SEQUENTIAL          
 ACTION:READ                


 OPENED outer.left.chd
 FILE TYPE:CHD6               UNIT 1008   STATUS:OLD                 
 FORMAT:FORMATTED              ACCESS:SEQUENTIAL          
 ACTION:READ                

 # File generated by Flopy version 3.9.1 on 04/08/2025 at 17:03:33.

 OPENED outer.right.chd
 FILE TYPE:CHD6               UNIT 1009   STATUS:OLD                 
 FORMAT:FORMATTED              ACCESS:SEQUENTIAL          
 ACTION:READ                

 # File generated by Flopy version 3.9.1 on 04/08/2025 at 17:03:33.

 OPENED inner.nam
 FILE TYPE:GWF6               UNIT 1010   STATUS:OLD                 
 FORMAT:FORMATTED              ACCESS:SEQUENTIAL          
 ACTION:READ                

 # File generated by Flopy version 3.9.1 on 04/08/2025 at 17:03:33.

 OPENED inner.dis
 FILE TYPE:DIS6               UNIT 1011   STATUS:OLD                 
 FORMAT:FORMATTED              ACCESS:SEQUENTIAL          
 ACTION:READ                

 # File generated by Flopy version 3.9.1 on 04/08/2025 at 17:03:33.

 OPENED inner.npf
 FILE TYPE:NPF6               UNIT 1012   STATUS:OLD                 
 FORMAT:FORMATTED              ACCESS:SEQUENTIAL          
 ACTION:READ                

 # File generated by Flopy version 3.9.1 on 04/08/2025 at 17:03:33.

 OPENED inner.ic
 FILE TYPE:IC6                UNIT 1013   STATUS:OLD                 
 FORMAT:FORMATTED              ACCESS:SEQUENTIAL          
 ACTION:READ                

 # File generated by Flopy version 3.9.1 on 04/08/2025 at 17:03:33.

 OPENED inner.oc
 FILE TYPE:OC6       UNIT 1014   STATUS:OLD                 
 FORMAT:FORMATTED              ACCESS:SEQUENTIAL          
 ACTION:READ                


 OPENED 07_ex-gwf-u1gwfgwf.gwfgwf
 FILE TYPE:GWF6-GWF6          UNIT 1015   STATUS:OLD                 
 FORMAT:FORMATTED              ACCESS:SEQUENTIAL          
 ACTION:READ                

 # File generated by Flopy version 3.9.1 on 04/08/2025 at 17:03:33.
    AUXILIARY  VARIABLE: ANGLDEGX        
    AUXILIARY  VARIABLE: CDIST           

 READING SIMULATION OPTIONS
    MAXIMUM NUMBER OF ERRORS THAT WILL BE STORED IS 1000
 END OF SIMULATION OPTIONS

 READING SIMULATION TIMING

 TDIS -- TEMPORAL DISCRETIZATION PACKAGE,
 VERSION 1 : 11/13/2014 - INPUT READ FROM MEMPATH: __INPUT__/SIM/TDIS                                
 PROCESSING TDIS OPTIONS
    SIMULATION TIME UNIT IS DAYS
 END OF TDIS OPTIONS
 PROCESSING TDIS DIMENSIONS
    1 STRESS PERIOD(S) IN SIMULATION
 END OF TDIS DIMENSIONS
 PROCESSING TDIS PERIODDATA


 STRESS PERIOD     LENGTH       TIME STEPS     MULTIPLIER FOR DELT
 ----------------------------------------------------------------------------
        1         1.000000          1                    1.000
 END OF TDIS PERIODDATA
 END OF SIMULATION TIMING

 READING SIMULATION MODELS
    GWF6 model 1 will be created
    GWF6 model 2 will be created
 END OF SIMULATION MODELS

 READING SIMULATION EXCHANGES
    GWF6-GWF6 exchange 1 will be created to connect model 1 with model 2
 END OF SIMULATION EXCHANGES

 READING SOLUTIONGROUP

 Creating solution: SLN_1           

 OPENED 07_ex-gwf-u1gwfgwf.ims
 FILE TYPE:IMS   UNIT 1018   STATUS:OLD                 
 FORMAT:FORMATTED              ACCESS:SEQUENTIAL          
 ACTION:READ                

 END OF SOLUTIONGROUP

 Creating exchange: GWF-GWF_1       
 PROCESSING GWF-GWF EXCHANGE OPTIONS
    EXCHANGE FLOWS WILL BE SAVED TO BINARY BUDGET FILES.
    THE LIST OF EXCHANGES WILL BE PRINTED.
    EXCHANGE FLOWS WILL BE PRINTED TO LIST FILES.
    EXCHANGE BOUNDARIES HAVE NAMES IN LAST COLUMN
    XT3D WILL BE APPLIED ON THE INTERFACE
 END OF GWF-GWF EXCHANGE OPTIONS
 PROCESSING EXCHANGE DIMENSIONS
    NEXG = 36
 END OF EXCHANGE DIMENSIONS
 PROCESSING EXCHANGEDATA
     NODEM1    NODEM2       IHC             CL1             CL2            HWVA        ANGLDEGX           CDIST BOUNDNAME      
     (1,3,2) (1,1,1)         1     50.0000         16.6667         33.3333         0.00000         74.5356     LEFT
     (1,3,2) (1,2,1)         1     50.0000         16.6667         33.3333         0.00000         66.6667     LEFT
     (1,3,2) (1,3,1)         1     50.0000         16.6667         33.3333         0.00000         74.5356     LEFT
     (1,4,2) (1,4,1)         1     50.0000         16.6667         33.3333         0.00000         74.5356     LEFT
     (1,4,2) (1,5,1)         1     50.0000         16.6667         33.3333         0.00000         66.6667     LEFT
     (1,4,2) (1,6,1)         1     50.0000         16.6667         33.3333         0.00000         74.5356     LEFT
     (1,5,2) (1,7,1)         1     50.0000         16.6667         33.3333         0.00000         74.5356     LEFT
     (1,5,2) (1,8,1)         1     50.0000         16.6667         33.3333         0.00000         66.6667     LEFT
     (1,5,2) (1,9,1)         1     50.0000         16.6667         33.3333         0.00000         74.5356     LEFT
     (1,6,3) (1,9,1)         1     50.0000         16.6667         33.3333         90.0000         74.5356     BOTTOM
     (1,6,3) (1,9,2)         1     50.0000         16.6667         33.3333         90.0000         66.6667     BOTTOM
     (1,6,3) (1,9,3)         1     50.0000         16.6667         33.3333         90.0000         74.5356     BOTTOM
     (1,6,4) (1,9,4)         1     50.0000         16.6667         33.3333         90.0000         74.5356     BOTTOM
     (1,6,4) (1,9,5)         1     50.0000         16.6667         33.3333         90.0000         66.6667     BOTTOM
     (1,6,4) (1,9,6)         1     50.0000         16.6667         33.3333         90.0000         74.5356     BOTTOM
     (1,6,5) (1,9,7)         1     50.0000         16.6667         33.3333         90.0000         74.5356     BOTTOM
     (1,6,5) (1,9,8)         1     50.0000         16.6667         33.3333         90.0000         66.6667     BOTTOM
     (1,6,5) (1,9,9)         1     50.0000         16.6667         33.3333         90.0000         74.5356     BOTTOM
     (1,3,6) (1,1,9)         1     50.0000         16.6667         33.3333         180.000         74.5356     RIGHT
     (1,3,6) (1,2,9)         1     50.0000         16.6667         33.3333         180.000         66.6667     RIGHT
     (1,3,6) (1,3,9)         1     50.0000         16.6667         33.3333         180.000         74.5356     RIGHT
     (1,4,6) (1,4,9)         1     50.0000         16.6667         33.3333         180.000         74.5356     RIGHT
     (1,4,6) (1,5,9)         1     50.0000         16.6667         33.3333         180.000         66.6667     RIGHT
     (1,4,6) (1,6,9)         1     50.0000         16.6667         33.3333         180.000         74.5356     RIGHT
     (1,5,6) (1,7,9)         1     50.0000         16.6667         33.3333         180.000         74.5356     RIGHT
     (1,5,6) (1,8,9)         1     50.0000         16.6667         33.3333         180.000         66.6667     RIGHT
     (1,5,6) (1,9,9)         1     50.0000         16.6667         33.3333         180.000         74.5356     RIGHT
     (1,2,3) (1,1,1)         1     50.0000         16.6667         33.3333         270.000         74.5356     TOP
     (1,2,3) (1,1,2)         1     50.0000         16.6667         33.3333         270.000         66.6667     TOP
     (1,2,3) (1,1,3)         1     50.0000         16.6667         33.3333         270.000         74.5356     TOP
     (1,2,4) (1,1,4)         1     50.0000         16.6667         33.3333         270.000         74.5356     TOP
     (1,2,4) (1,1,5)         1     50.0000         16.6667         33.3333         270.000         66.6667     TOP
     (1,2,4) (1,1,6)         1     50.0000         16.6667         33.3333         270.000         74.5356     TOP
     (1,2,5) (1,1,7)         1     50.0000         16.6667         33.3333         270.000         74.5356     TOP
     (1,2,5) (1,1,8)         1     50.0000         16.6667         33.3333         270.000         66.6667     TOP
     (1,2,5) (1,1,9)         1     50.0000         16.6667         33.3333         270.000         74.5356     TOP
 END OF EXCHANGEDATA

PROCESSING MODEL CONNECTIONS
 Created 2 model connections for solution SLN_1
END OF MODEL CONNECTIONS

 IMS -- ITERATIVE MODEL SOLUTION PACKAGE, VERSION 6, 4/28/2017
         INPUT READ FROM UNIT 1018
 # File generated by Flopy version 3.9.1 on 04/08/2025 at 17:03:33.

 PROCESSING IMS OPTIONS
 END OF IMS OPTIONS

 PROCESSING IMS NONLINEAR
 END OF IMS NONLINEAR DATA
 ***UNDER-RELAXATION WILL NOT BE USED***
 

 PROCESSING LINEAR DATA
 END OF LINEAR DATA
 ***IMS LINEAR SOLVER WILL BE USED***

 IMSLINEAR -- UNSTRUCTURED LINEAR SOLUTION PACKAGE, VERSION 8, 04/28/2017
 An asymmetric matrix will be solved

 OUTER ITERATION CONVERGENCE CRITERION    (DVCLOSE) =    0.100000E-08
 MAXIMUM NUMBER OF OUTER ITERATIONS        (MXITER) = 50
 SOLVER PRINTOUT INDEX                     (IPRIMS) = 0
 NONLINEAR ITERATION METHOD            (NONLINMETH) = 0
 LINEAR SOLUTION METHOD                   (LINMETH) = 1

       SOLUTION BY THE BICONJUGATE-GRADIENT STABILIZED METHOD
 ------------------------------------------------------------------
 MAXIMUM OF 50 CALLS OF SOLUTION ROUTINE
 MAXIMUM OF 100 INTERNAL ITERATIONS PER CALL TO SOLUTION ROUTINE
 LINEAR ACCELERATION METHOD            = BCGS      
 MATRIX PRECONDITIONING TYPE           = INCOMPLETE LU       
 MATRIX SCALING APPROACH               = NO SCALING          
 MATRIX REORDERING APPROACH            = ORIGINAL ORDERING        
 NUMBER OF ORTHOGONALIZATIONS          = 0
 HEAD CHANGE CRITERION FOR CLOSURE     =    0.10000E-08
 RESIDUAL CHANGE CRITERION FOR CLOSURE =    0.10000E-05
 RESIDUAL CONVERGENCE OPTION           = 1
 RESIDUAL CONVERGENCE NORM             = INFINITY NORM S 
 RELAXATION FACTOR                     =    0.00000E+00



 
    Solving:  Stress period:     1    Time step:     1
 
1
 STRESS PERIOD NO. 1, LENGTH =   1.000000    
 ------------------------------------------
 NUMBER OF TIME STEPS = 1
 MULTIPLIER FOR DELT =     1.000
 INITIAL TIME STEP SIZE =   1.000000    

 SUMMARY OF EXCHANGE RATES FOR EXCHANGE GWF-GWF_1 WITH ID 1
          NODEM1          NODEM2            COND            X_M1            X_M2            FLOW
------------------------------------------------------------------------------------------------
         (1,3,2)         (1,1,1)    3.000000E+30    0.833333        0.722222        -5.55556    
         (1,3,2)         (1,2,1)    3.000000E+30    0.833333        0.722222        -5.55556    
         (1,3,2)         (1,3,1)    3.000000E+30    0.833333        0.722222        -5.55556    
         (1,4,2)         (1,4,1)    3.000000E+30    0.833333        0.722222        -5.55556    
         (1,4,2)         (1,5,1)    3.000000E+30    0.833333        0.722222        -5.55556    
         (1,4,2)         (1,6,1)    3.000000E+30    0.833333        0.722222        -5.55556    
         (1,5,2)         (1,7,1)    3.000000E+30    0.833333        0.722222        -5.55556    
         (1,5,2)         (1,8,1)    3.000000E+30    0.833333        0.722222        -5.55556    
         (1,5,2)         (1,9,1)    3.000000E+30    0.833333        0.722222        -5.55556    
         (1,6,3)         (1,9,1)    3.000000E+30    0.666667        0.722222       -4.679945E-11
         (1,6,3)         (1,9,2)    3.000000E+30    0.666667        0.666667       -8.128630E-11
         (1,6,3)         (1,9,3)    3.000000E+30    0.666667        0.611111       -8.581091E-11
         (1,6,4)         (1,9,4)    3.000000E+30    0.500000        0.555556       -1.111125E-10
         (1,6,4)         (1,9,5)    3.000000E+30    0.500000        0.500000       -1.303235E-10
         (1,6,4)         (1,9,6)    3.000000E+30    0.500000        0.444444       -1.231539E-10
         (1,6,5)         (1,9,7)    3.000000E+30    0.333333        0.388889       -1.344289E-10
         (1,6,5)         (1,9,8)    3.000000E+30    0.333333        0.333333       -1.424172E-10
         (1,6,5)         (1,9,9)    3.000000E+30    0.333333        0.277778       -1.361091E-10
         (1,3,6)         (1,1,9)    3.000000E+30    0.166667        0.277778         5.55556    
         (1,3,6)         (1,2,9)    3.000000E+30    0.166667        0.277778         5.55556    
         (1,3,6)         (1,3,9)    3.000000E+30    0.166667        0.277778         5.55556    
         (1,4,6)         (1,4,9)    3.000000E+30    0.166667        0.277778         5.55556    
         (1,4,6)         (1,5,9)    3.000000E+30    0.166667        0.277778         5.55556    
         (1,4,6)         (1,6,9)    3.000000E+30    0.166667        0.277778         5.55556    
         (1,5,6)         (1,7,9)    3.000000E+30    0.166667        0.277778         5.55556    
         (1,5,6)         (1,8,9)    3.000000E+30    0.166667        0.277778         5.55556    
         (1,5,6)         (1,9,9)    3.000000E+30    0.166667        0.277778         5.55556    
         (1,2,3)         (1,1,1)    3.000000E+30    0.666667        0.722222        3.729361E-11
         (1,2,3)         (1,1,2)    3.000000E+30    0.666667        0.666667        2.065642E-11
         (1,2,3)         (1,1,3)    3.000000E+30    0.666667        0.611111       -4.062306E-13
         (1,2,4)         (1,1,4)    3.000000E+30    0.500000        0.555556       -5.316636E-11
         (1,2,4)         (1,1,5)    3.000000E+30    0.500000        0.500000       -8.595137E-11
         (1,2,4)         (1,1,6)    3.000000E+30    0.500000        0.444444       -8.477397E-11
         (1,2,5)         (1,1,7)    3.000000E+30    0.333333        0.388889       -8.907364E-11
         (1,2,5)         (1,1,8)    3.000000E+30    0.333333        0.333333       -8.776163E-11
         (1,2,5)         (1,1,9)    3.000000E+30    0.333333        0.277778       -1.102207E-10

 MEMORY MANAGER TOTAL STORAGE BY DATA TYPE, IN KILOBYTES
 -------------------------------
                    ALLOCATED   
 DATA TYPE           MEMORY     
 -------------------------------
 Character        14.712000     
 Logical          0.10800000    
 Integer          106.38400     
 Real             179.88800     
 -------------------------------
 Total            301.09200     
 Virtual          0.0000000     
 -------------------------------


 
 Run end date and time (yyyy/mm/dd hh:mm:ss): 2025/04/08 17:03:33
 Elapsed run time:  0.185 Seconds
 Normal termination of simulation.
