                                   MODFLOW 6
                U.S. GEOLOGICAL SURVEY MODULAR HYDROLOGIC MODEL
                          GROUNDWATER FLOW MODEL (GWF)
                            VERSION 6.6.1 02/10/2025

   MODFLOW 6 compiled Feb 14 2025 13:40:10 with Intel(R) Fortran Intel(R) 64
   Compiler Classic for applications running on Intel(R) 64, Version 2021.7.0
                             Build 20220726_000000

This software has been approved for release by the U.S. Geological 
Survey (USGS). Although the software has been subjected to rigorous 
review, the USGS reserves the right to update the software as needed 
pursuant to further analysis and review. No warranty, expressed or 
implied, is made by the USGS or the U.S. Government as to the 
functionality of the software and related material nor shall the 
fact of release constitute any such warranty. Furthermore, the 
software is released on condition that neither the USGS nor the U.S. 
Government shall be held liable for any damages resulting from its 
authorized or unauthorized use. Also refer to the USGS Water 
Resources Software User Rights Notice for complete use, copyright, 
and distribution information.


As a work of the United States Government, this USGS product is 
in the public domain within the United States. You can copy, 
modify, distribute, and perform the work, even for commercial 
purposes, all without asking permission. Additionally, USGS 
waives copyright and related rights in the work worldwide 
through CC0 1.0 Universal Public Domain Dedication 
(https://creativecommons.org/publicdomain/zero/1.0/).

The following GNU Lesser General Public License (LGPL) libraries
are used in this USGS product:

    SPARSKIT version 2.0
      ilut, luson, and qsplit 
      (https://www-users.cse.umn.edu/~saad/software/SPARSKIT/)

    RCM - Reverse Cuthill McKee Ordering
      (https://people.math.sc.edu/Burkardt/f_src/rcm/rcm.html)

    BLAS - Basic Linear Algebra Subprograms Level 1
      (https://people.math.sc.edu/Burkardt/f_src/blas1_d/blas1_d.html)

    SPARSEKIT - Sparse Matrix Utility Package
      amux, dperm, dvperm, rperm, and cperm
      (https://people.sc.fsu.edu/~jburkardt/f77_src/sparsekit/sparsekit.html)

The following BSD-3 License libraries are used in this USGS product:

    Modern Fortran DAG Library
      Copyright (c) 2018, Jacob Williams
      All rights reserved.
      (https://github.com/jacobwilliams/daglib)

MODFLOW 6 compiler options: /O2 /heap-arrays:0 /fpe:0 /traceback /nologo /fpp
/c /module:win64\mod_mf6\ /object:win64\obj_mf6\

System command used to initiate simulation:
C:\Users\gross.DESKTOP-AIRQM2M\anaconda3\Scripts\mf6.exe

MODFLOW was compiled using uniform precision.

Real Variables
  KIND: 8
  TINY (smallest non-zero value):    2.225074-308
  HUGE (largest value):    1.797693+308
  PRECISION: 15
  SIZE IN BITS: 64

Integer Variables
  KIND: 4
  HUGE (largest value): 2147483647
  SIZE IN BITS: 32

Long Integer Variables
  KIND: 8
  HUGE (largest value): 9223372036854775807
  SIZE IN BITS: 64

Logical Variables
  KIND: 4
  SIZE IN BITS: 32
 
 NAMEFILE OPTIONS:
    FLOWS WILL BE SAVED TO BUDGET FILE SPECIFIED IN OUTPUT CONTROL
 END NAMEFILE OPTIONS:

 DIS -- STRUCTURED GRID DISCRETIZATION PACKAGE, VERSION 2 : 3/27/2014 - INPUT READ FROM MEMPATH: __INPUT__/EX-GWF-FHB/DIS                          


 NPF -- NODE PROPERTY FLOW PACKAGE, VERSION 1, 3/30/2015 INPUT READ FROM MEMPATH: __INPUT__/EX-GWF-FHB/NPF                          


 IC -- Initial Conditions Package, Version 8, 3/28/2015 input read from mempath: __INPUT__/EX-GWF-FHB/IC                           


 Setting Discretization Options
    Model length unit [0=UND, 1=FEET, 2=METERS, 3=CENTIMETERS] set as 2
 End Setting Discretization Options

 Setting Discretization Dimensions
    NLAY = 1
    NROW = 3
    NCOL = 10
 End Setting Discretization Dimensions

 Setting Discretization Griddata
    DELR set from input file
    DELC set from input file
    TOP set from input file
    BOTM set from input file
 End Setting Discretization Griddata

 Setting NPF Options
    Specific discharge will be calculated at cell centers and written to DATA-SPDIS in budget file when requested.
 End Setting NPF Options

 Setting NPF Griddata
    ICELLTYPE set from input file
    K set from input file
    K33 not provided.  Setting K33 = K.
    K22 not provided.  Setting K22 = K.
 End Setting NPF Griddata


 WEL   -- WEL PACKAGE, VERSION 8, 2/22/2014 INPUT READ FROM MEMPATH: __INPUT__/EX-GWF-FHB/WEL                          

 PROCESSING WEL BASE OPTIONS
 END OF WEL BASE OPTIONS

 PROCESSING WEL OPTIONS
 END OF WEL OPTIONS

 PROCESSING WEL BASE DIMENSIONS
    MAXBOUND =       1
 END OF WEL BASE DIMENSIONS

 CHD   -- CHD PACKAGE, VERSION 8, 2/22/2014 INPUT READ FROM MEMPATH: __INPUT__/EX-GWF-FHB/CHD                          

 PROCESSING CHD BASE OPTIONS
 END OF CHD BASE OPTIONS

 PROCESSING CHD BASE DIMENSIONS
    MAXBOUND =       3
 END OF CHD BASE DIMENSIONS
    STRT set from input file

 STO -- STORAGE PACKAGE, VERSION 1, 5/19/2014 INPUT READ FROM MEMPATH: __INPUT__/EX-GWF-FHB/STO                          


 PROCESSING STORAGE OPTIONS
    STORAGECOEFFICIENT OPTION:
 Read storage coefficient rather than specific storage
 END OF STORAGE OPTIONS

The observation utility is active for "EX-GWF-FHB"
 # File generated by Flopy version 3.9.1 on 04/04/2025 at 17:58:29.

Processing observation options:


    BINARY GRID INFORMATION WILL BE WRITTEN TO:
      UNIT NUMBER: 1020
      FILE NAME: ex-gwf-fhb.dis.grb

 OPENED ex-gwf-fhb.dis.grb
 FILE TYPE:DATA(BINARY)   UNIT 1020   STATUS:REPLACE             
 FORMAT:UNFORMATTED            ACCESS:STREAM              
 ACTION:READWRITE           

      THE LAST TIME STEP WILL BE PRINTED
      THE LAST TIME STEP WILL BE PRINTED
 # File generated by Flopy version 3.9.1 on 04/04/2025 at 17:58:29.

 PROCESSING OC OPTIONS

    BUDGET INFORMATION WILL BE WRITTEN TO:
      UNIT NUMBER: 1021
      FILE NAME: ex-gwf-fhb.bud

 OPENED ex-gwf-fhb.bud
 FILE TYPE:DATA(BINARY)   UNIT 1021   STATUS:REPLACE             
 FORMAT:UNFORMATTED            ACCESS:STREAM              
 ACTION:READWRITE           

    HEAD INFORMATION WILL BE WRITTEN TO:
      UNIT NUMBER: 1022
      FILE NAME: ex-gwf-fhb.hds

 OPENED ex-gwf-fhb.hds
 FILE TYPE:DATA(BINARY)   UNIT 1022   STATUS:REPLACE             
 FORMAT:UNFORMATTED            ACCESS:STREAM              
 ACTION:READWRITE           

 END OF OC OPTIONS

start timestep kper="1" kstp="1" mode="normal"


 BEGIN READING OUTPUT CONTROL FOR STRESS PERIOD 1
      ALL TIME STEPS WILL BE SAVED
      ALL TIME STEPS WILL BE SAVED
      ALL TIME STEPS WILL BE PRINTED
      ALL TIME STEPS WILL BE PRINTED

 END READING OUTPUT CONTROL FOR STRESS PERIOD 1


 PROCESSING STORAGE PERIOD DATA
 END PROCESSING STORAGE PERIOD DATA


 STRESS PERIOD 1 IS TRANSIENT

 UBDSV1 SAVING           STO-SS ON UNIT   1021 AT TIME STEP      1, STRESS PERIOD      1
 UBDSV1 SAVING     FLOW-JA-FACE ON UNIT   1021 AT TIME STEP      1, STRESS PERIOD      1
 UBDSV06 SAVING       DATA-SPDIS IN MODEL EX-GWF-FHB       PACKAGE NPF             CONNECTED TO MODEL EX-GWF-FHB       PACKAGE NPF              ON UNIT   1021 AT TIME STEP      1, STRESS PERIOD      1
 UBDSV06 SAVING              WEL IN MODEL EX-GWF-FHB       PACKAGE EX-GWF-FHB      CONNECTED TO MODEL EX-GWF-FHB       PACKAGE WEL              ON UNIT   1021 AT TIME STEP      1, STRESS PERIOD      1
 UBDSV06 SAVING              CHD IN MODEL EX-GWF-FHB       PACKAGE EX-GWF-FHB      CONNECTED TO MODEL EX-GWF-FHB       PACKAGE CHD              ON UNIT   1021 AT TIME STEP      1, STRESS PERIOD      1
1
  HEAD IN LAYER   1 AT END OF TIME STEP   1 IN STRESS PERIOD    1
  ---------------------------------------------------------------------------

                1               2               3               4               5               6               7               8               9              10
 ................................................................................................................................................................
   1      1.59840         1.46541         1.30466         1.13814        0.970405        0.802426        0.634398        0.466363        0.298328        0.130293    
   2      1.73139         1.49316         1.31046         1.13935        0.970657        0.802479        0.634409        0.466365        0.298328        0.130293    
   3      1.59840         1.46541         1.30466         1.13814        0.970405        0.802426        0.634398        0.466363        0.298328        0.130293    

 HEAD WILL BE SAVED ON UNIT 1022 AT END OF TIME STEP    1, STRESS PERIOD    1


  VOLUME BUDGET FOR ENTIRE MODEL AT END OF TIME STEP    1, STRESS PERIOD   1
  ---------------------------------------------------------------------------------------------------

     CUMULATIVE VOLUME      L**3       RATES FOR THIS TIME STEP      L**3/T          PACKAGE NAME    
     ------------------                 ------------------------                     ----------------

           IN:                                      IN:
           ---                                      ---
              STO-SS =           0.0000                STO-SS =           0.0000     STORAGE                          
                 WEL =      100846.9055                   WEL =        2521.1726     WEL                              
                 CHD =           0.0000                   CHD =           0.0000     CHD                              

            TOTAL IN =      100846.9055              TOTAL IN =        2521.1726

          OUT:                                     OUT:
          ----                                     ----
              STO-SS =          26.2036                STO-SS =           0.6551     STORAGE                          
                 WEL =           0.0000                   WEL =           0.0000     WEL                              
                 CHD =      100820.7019                   CHD =        2520.5175     CHD                              

           TOTAL OUT =      100846.9055             TOTAL OUT =        2521.1726

            IN - OUT =       5.0870E-06              IN - OUT =       1.2718E-07

 PERCENT DISCREPANCY =           0.00     PERCENT DISCREPANCY =           0.00




         TIME SUMMARY AT END OF TIME STEP    1 IN STRESS PERIOD    1
                    SECONDS     MINUTES      HOURS       DAYS        YEARS
                    -----------------------------------------------------------
   TIME STEP LENGTH 3.45600E+06  57600.      960.00      40.000     0.10951    
 STRESS PERIOD TIME 3.45600E+06  57600.      960.00      40.000     0.10951    
         TOTAL TIME 3.45600E+06  57600.      960.00      40.000     0.10951    


end timestep


start timestep kper="1" kstp="2" mode="normal"

 UBDSV1 SAVING           STO-SS ON UNIT   1021 AT TIME STEP      2, STRESS PERIOD      1
 UBDSV1 SAVING     FLOW-JA-FACE ON UNIT   1021 AT TIME STEP      2, STRESS PERIOD      1
 UBDSV06 SAVING       DATA-SPDIS IN MODEL EX-GWF-FHB       PACKAGE NPF             CONNECTED TO MODEL EX-GWF-FHB       PACKAGE NPF              ON UNIT   1021 AT TIME STEP      2, STRESS PERIOD      1
 UBDSV06 SAVING              WEL IN MODEL EX-GWF-FHB       PACKAGE EX-GWF-FHB      CONNECTED TO MODEL EX-GWF-FHB       PACKAGE WEL              ON UNIT   1021 AT TIME STEP      2, STRESS PERIOD      1
 UBDSV06 SAVING              CHD IN MODEL EX-GWF-FHB       PACKAGE EX-GWF-FHB      CONNECTED TO MODEL EX-GWF-FHB       PACKAGE CHD              ON UNIT   1021 AT TIME STEP      2, STRESS PERIOD      1
1
  HEAD IN LAYER   1 AT END OF TIME STEP   2 IN STRESS PERIOD    1
  ---------------------------------------------------------------------------

                1               2               3               4               5               6               7               8               9              10
 ................................................................................................................................................................
   1      2.03242         1.87193         1.67794         1.47697         1.27454         1.07181        0.869013        0.666205        0.463395        0.260586    
   2      2.19291         1.90542         1.68494         1.47843         1.27485         1.07187        0.869026        0.666208        0.463396        0.260586    
   3      2.03242         1.87193         1.67794         1.47697         1.27454         1.07181        0.869013        0.666205        0.463395        0.260586    

 HEAD WILL BE SAVED ON UNIT 1022 AT END OF TIME STEP    2, STRESS PERIOD    1


  VOLUME BUDGET FOR ENTIRE MODEL AT END OF TIME STEP    2, STRESS PERIOD   1
  ---------------------------------------------------------------------------------------------------

     CUMULATIVE VOLUME      L**3       RATES FOR THIS TIME STEP      L**3/T          PACKAGE NAME    
     ------------------                 ------------------------                     ----------------

           IN:                                      IN:
           ---                                      ---
              STO-SS =           0.0000                STO-SS =           0.0000     STORAGE                          
                 WEL =      222540.7166                   WEL =        3042.3453     WEL                              
                 CHD =           0.0000                   CHD =           0.0000     CHD                              

            TOTAL IN =      222540.7166              TOTAL IN =        3042.3453

          OUT:                                     OUT:
          ----                                     ----
              STO-SS =          34.4155                STO-SS =           0.2053     STORAGE                          
                 WEL =           0.0000                   WEL =           0.0000     WEL                              
                 CHD =      222506.3011                   CHD =        3042.1400     CHD                              

           TOTAL OUT =      222540.7166             TOTAL OUT =        3042.3453

            IN - OUT =       3.9126E-06              IN - OUT =      -2.9362E-08

 PERCENT DISCREPANCY =           0.00     PERCENT DISCREPANCY =          -0.00




         TIME SUMMARY AT END OF TIME STEP    2 IN STRESS PERIOD    1
                    SECONDS     MINUTES      HOURS       DAYS        YEARS
                    -----------------------------------------------------------
   TIME STEP LENGTH 3.45600E+06  57600.      960.00      40.000     0.10951    
 STRESS PERIOD TIME 6.91200E+06 1.15200E+05  1920.0      80.000     0.21903    
         TOTAL TIME 6.91200E+06 1.15200E+05  1920.0      80.000     0.21903    


end timestep


start timestep kper="1" kstp="3" mode="normal"

 UBDSV1 SAVING           STO-SS ON UNIT   1021 AT TIME STEP      3, STRESS PERIOD      1
 UBDSV1 SAVING     FLOW-JA-FACE ON UNIT   1021 AT TIME STEP      3, STRESS PERIOD      1
 UBDSV06 SAVING       DATA-SPDIS IN MODEL EX-GWF-FHB       PACKAGE NPF             CONNECTED TO MODEL EX-GWF-FHB       PACKAGE NPF              ON UNIT   1021 AT TIME STEP      3, STRESS PERIOD      1
 UBDSV06 SAVING              WEL IN MODEL EX-GWF-FHB       PACKAGE EX-GWF-FHB      CONNECTED TO MODEL EX-GWF-FHB       PACKAGE WEL              ON UNIT   1021 AT TIME STEP      3, STRESS PERIOD      1
 UBDSV06 SAVING              CHD IN MODEL EX-GWF-FHB       PACKAGE EX-GWF-FHB      CONNECTED TO MODEL EX-GWF-FHB       PACKAGE CHD              ON UNIT   1021 AT TIME STEP      3, STRESS PERIOD      1
1
  HEAD IN LAYER   1 AT END OF TIME STEP   3 IN STRESS PERIOD    1
  ---------------------------------------------------------------------------

                1               2               3               4               5               6               7               8               9              10
 ................................................................................................................................................................
   1      2.46625         2.27827         2.05105         1.81565         1.57854         1.34108         1.10354        0.865988        0.628433        0.390879    
   2      2.65423         2.31750         2.05924         1.81736         1.57890         1.34115         1.10356        0.865991        0.628434        0.390879    
   3      2.46625         2.27827         2.05105         1.81565         1.57854         1.34108         1.10354        0.865988        0.628433        0.390879    

 HEAD WILL BE SAVED ON UNIT 1022 AT END OF TIME STEP    3, STRESS PERIOD    1


  VOLUME BUDGET FOR ENTIRE MODEL AT END OF TIME STEP    3, STRESS PERIOD   1
  ---------------------------------------------------------------------------------------------------

     CUMULATIVE VOLUME      L**3       RATES FOR THIS TIME STEP      L**3/T          PACKAGE NAME    
     ------------------                 ------------------------                     ----------------

           IN:                                      IN:
           ---                                      ---
              STO-SS =           0.0000                STO-SS =           0.0000     STORAGE                          
                 WEL =      365081.4332                   WEL =        3563.5179     WEL                              
                 CHD =           0.0000                   CHD =           0.0000     CHD                              

            TOTAL IN =      365081.4332              TOTAL IN =        3563.5179

          OUT:                                     OUT:
          ----                                     ----
              STO-SS =          42.6240                STO-SS =           0.2052     STORAGE                          
                 WEL =           0.0000                   WEL =           0.0000     WEL                              
                 CHD =      365038.8093                   CHD =        3563.3127     CHD                              

           TOTAL OUT =      365081.4332             TOTAL OUT =        3563.5179

            IN - OUT =       2.7377E-06              IN - OUT =      -2.9371E-08

 PERCENT DISCREPANCY =           0.00     PERCENT DISCREPANCY =          -0.00




         TIME SUMMARY AT END OF TIME STEP    3 IN STRESS PERIOD    1
                    SECONDS     MINUTES      HOURS       DAYS        YEARS
                    -----------------------------------------------------------
   TIME STEP LENGTH 3.45600E+06  57600.      960.00      40.000     0.10951    
 STRESS PERIOD TIME 1.03680E+07 1.72800E+05  2880.0      120.00     0.32854    
         TOTAL TIME 1.03680E+07 1.72800E+05  2880.0      120.00     0.32854    


end timestep


start timestep kper="1" kstp="4" mode="normal"

 UBDSV1 SAVING           STO-SS ON UNIT   1021 AT TIME STEP      4, STRESS PERIOD      1
 UBDSV1 SAVING     FLOW-JA-FACE ON UNIT   1021 AT TIME STEP      4, STRESS PERIOD      1
 UBDSV06 SAVING       DATA-SPDIS IN MODEL EX-GWF-FHB       PACKAGE NPF             CONNECTED TO MODEL EX-GWF-FHB       PACKAGE NPF              ON UNIT   1021 AT TIME STEP      4, STRESS PERIOD      1
 UBDSV06 SAVING              WEL IN MODEL EX-GWF-FHB       PACKAGE EX-GWF-FHB      CONNECTED TO MODEL EX-GWF-FHB       PACKAGE WEL              ON UNIT   1021 AT TIME STEP      4, STRESS PERIOD      1
 UBDSV06 SAVING              CHD IN MODEL EX-GWF-FHB       PACKAGE EX-GWF-FHB      CONNECTED TO MODEL EX-GWF-FHB       PACKAGE CHD              ON UNIT   1021 AT TIME STEP      4, STRESS PERIOD      1
1
  HEAD IN LAYER   1 AT END OF TIME STEP   4 IN STRESS PERIOD    1
  ---------------------------------------------------------------------------

                1               2               3               4               5               6               7               8               9              10
 ................................................................................................................................................................
   1      2.90008         2.68461         2.42416         2.15433         1.88254         1.61035         1.33807         1.06577        0.793471        0.521173    
   2      3.11556         2.72958         2.43355         2.15629         1.88295         1.61043         1.33808         1.06577        0.793472        0.521173    
   3      2.90008         2.68461         2.42416         2.15433         1.88254         1.61035         1.33807         1.06577        0.793471        0.521173    

 HEAD WILL BE SAVED ON UNIT 1022 AT END OF TIME STEP    4, STRESS PERIOD    1


  VOLUME BUDGET FOR ENTIRE MODEL AT END OF TIME STEP    4, STRESS PERIOD   1
  ---------------------------------------------------------------------------------------------------

     CUMULATIVE VOLUME      L**3       RATES FOR THIS TIME STEP      L**3/T          PACKAGE NAME    
     ------------------                 ------------------------                     ----------------

           IN:                                      IN:
           ---                                      ---
              STO-SS =           0.0000                STO-SS =           0.0000     STORAGE                          
                 WEL =      528469.0554                   WEL =        4084.6906     WEL                              
                 CHD =           0.0000                   CHD =           0.0000     CHD                              

            TOTAL IN =      528469.0554              TOTAL IN =        4084.6906

          OUT:                                     OUT:
          ----                                     ----
              STO-SS =          50.8324                STO-SS =           0.2052     STORAGE                          
                 WEL =           0.0000                   WEL =           0.0000     WEL                              
                 CHD =      528418.2229                   CHD =        4084.4853     CHD                              

           TOTAL OUT =      528469.0554             TOTAL OUT =        4084.6906

            IN - OUT =       1.5629E-06              IN - OUT =      -2.9371E-08

 PERCENT DISCREPANCY =           0.00     PERCENT DISCREPANCY =          -0.00




         TIME SUMMARY AT END OF TIME STEP    4 IN STRESS PERIOD    1
                    SECONDS     MINUTES      HOURS       DAYS        YEARS
                    -----------------------------------------------------------
   TIME STEP LENGTH 3.45600E+06  57600.      960.00      40.000     0.10951    
 STRESS PERIOD TIME 1.38240E+07 2.30400E+05  3840.0      160.00     0.43806    
         TOTAL TIME 1.38240E+07 2.30400E+05  3840.0      160.00     0.43806    


end timestep


start timestep kper="1" kstp="5" mode="normal"

 UBDSV1 SAVING           STO-SS ON UNIT   1021 AT TIME STEP      5, STRESS PERIOD      1
 UBDSV1 SAVING     FLOW-JA-FACE ON UNIT   1021 AT TIME STEP      5, STRESS PERIOD      1
 UBDSV06 SAVING       DATA-SPDIS IN MODEL EX-GWF-FHB       PACKAGE NPF             CONNECTED TO MODEL EX-GWF-FHB       PACKAGE NPF              ON UNIT   1021 AT TIME STEP      5, STRESS PERIOD      1
 UBDSV06 SAVING              WEL IN MODEL EX-GWF-FHB       PACKAGE EX-GWF-FHB      CONNECTED TO MODEL EX-GWF-FHB       PACKAGE WEL              ON UNIT   1021 AT TIME STEP      5, STRESS PERIOD      1
 UBDSV06 SAVING              CHD IN MODEL EX-GWF-FHB       PACKAGE EX-GWF-FHB      CONNECTED TO MODEL EX-GWF-FHB       PACKAGE CHD              ON UNIT   1021 AT TIME STEP      5, STRESS PERIOD      1
1
  HEAD IN LAYER   1 AT END OF TIME STEP   5 IN STRESS PERIOD    1
  ---------------------------------------------------------------------------

                1               2               3               4               5               6               7               8               9              10
 ................................................................................................................................................................
   1      3.33391         3.09095         2.79727         2.49301         2.18654         1.87961         1.57259         1.26555        0.958509        0.651466    
   2      3.57689         3.14166         2.80785         2.49522         2.18700         1.87971         1.57261         1.26556        0.958510        0.651466    
   3      3.33391         3.09095         2.79727         2.49301         2.18654         1.87961         1.57259         1.26555        0.958509        0.651466    

 HEAD WILL BE SAVED ON UNIT 1022 AT END OF TIME STEP    5, STRESS PERIOD    1


  VOLUME BUDGET FOR ENTIRE MODEL AT END OF TIME STEP    5, STRESS PERIOD   1
  ---------------------------------------------------------------------------------------------------

     CUMULATIVE VOLUME      L**3       RATES FOR THIS TIME STEP      L**3/T          PACKAGE NAME    
     ------------------                 ------------------------                     ----------------

           IN:                                      IN:
           ---                                      ---
              STO-SS =           0.0000                STO-SS =           0.0000     STORAGE                          
                 WEL =      712703.5831                   WEL =        4605.8632     WEL                              
                 CHD =           0.0000                   CHD =           0.0000     CHD                              

            TOTAL IN =      712703.5831              TOTAL IN =        4605.8632

          OUT:                                     OUT:
          ----                                     ----
              STO-SS =          59.0409                STO-SS =           0.2052     STORAGE                          
                 WEL =           0.0000                   WEL =           0.0000     WEL                              
                 CHD =      712644.5422                   CHD =        4605.6580     CHD                              

           TOTAL OUT =      712703.5831             TOTAL OUT =        4605.8632

            IN - OUT =       3.8731E-07              IN - OUT =      -2.9393E-08

 PERCENT DISCREPANCY =           0.00     PERCENT DISCREPANCY =          -0.00




         TIME SUMMARY AT END OF TIME STEP    5 IN STRESS PERIOD    1
                    SECONDS     MINUTES      HOURS       DAYS        YEARS
                    -----------------------------------------------------------
   TIME STEP LENGTH 3.45600E+06  57600.      960.00      40.000     0.10951    
 STRESS PERIOD TIME 1.72800E+07 2.88000E+05  4800.0      200.00     0.54757    
         TOTAL TIME 1.72800E+07 2.88000E+05  4800.0      200.00     0.54757    


end timestep


start timestep kper="1" kstp="6" mode="normal"

 UBDSV1 SAVING           STO-SS ON UNIT   1021 AT TIME STEP      6, STRESS PERIOD      1
 UBDSV1 SAVING     FLOW-JA-FACE ON UNIT   1021 AT TIME STEP      6, STRESS PERIOD      1
 UBDSV06 SAVING       DATA-SPDIS IN MODEL EX-GWF-FHB       PACKAGE NPF             CONNECTED TO MODEL EX-GWF-FHB       PACKAGE NPF              ON UNIT   1021 AT TIME STEP      6, STRESS PERIOD      1
 UBDSV06 SAVING              WEL IN MODEL EX-GWF-FHB       PACKAGE EX-GWF-FHB      CONNECTED TO MODEL EX-GWF-FHB       PACKAGE WEL              ON UNIT   1021 AT TIME STEP      6, STRESS PERIOD      1
 UBDSV06 SAVING              CHD IN MODEL EX-GWF-FHB       PACKAGE EX-GWF-FHB      CONNECTED TO MODEL EX-GWF-FHB       PACKAGE CHD              ON UNIT   1021 AT TIME STEP      6, STRESS PERIOD      1
1
  HEAD IN LAYER   1 AT END OF TIME STEP   6 IN STRESS PERIOD    1
  ---------------------------------------------------------------------------

                1               2               3               4               5               6               7               8               9              10
 ................................................................................................................................................................
   1      3.76775         3.49729         3.17038         2.83169         2.49054         2.14888         1.80712         1.46534         1.12355        0.781759    
   2      4.03821         3.55373         3.18216         2.83415         2.49105         2.14899         1.80714         1.46534         1.12355        0.781759    
   3      3.76775         3.49729         3.17038         2.83169         2.49054         2.14888         1.80712         1.46534         1.12355        0.781759    

 HEAD WILL BE SAVED ON UNIT 1022 AT END OF TIME STEP    6, STRESS PERIOD    1


  VOLUME BUDGET FOR ENTIRE MODEL AT END OF TIME STEP    6, STRESS PERIOD   1
  ---------------------------------------------------------------------------------------------------

     CUMULATIVE VOLUME      L**3       RATES FOR THIS TIME STEP      L**3/T          PACKAGE NAME    
     ------------------                 ------------------------                     ----------------

           IN:                                      IN:
           ---                                      ---
              STO-SS =           0.0000                STO-SS =           0.0000     STORAGE                          
                 WEL =      917785.0163                   WEL =        5127.0358     WEL                              
                 CHD =           0.0000                   CHD =           0.0000     CHD                              

            TOTAL IN =      917785.0163              TOTAL IN =        5127.0358

          OUT:                                     OUT:
          ----                                     ----
              STO-SS =          67.2494                STO-SS =           0.2052     STORAGE                          
                 WEL =           0.0000                   WEL =           0.0000     WEL                              
                 CHD =      917717.7669                   CHD =        5126.8306     CHD                              

           TOTAL OUT =      917785.0163             TOTAL OUT =        5127.0358

            IN - OUT =      -7.8673E-07              IN - OUT =      -2.9352E-08

 PERCENT DISCREPANCY =          -0.00     PERCENT DISCREPANCY =          -0.00




         TIME SUMMARY AT END OF TIME STEP    6 IN STRESS PERIOD    1
                    SECONDS     MINUTES      HOURS       DAYS        YEARS
                    -----------------------------------------------------------
   TIME STEP LENGTH 3.45600E+06  57600.      960.00      40.000     0.10951    
 STRESS PERIOD TIME 2.07360E+07 3.45600E+05  5760.0      240.00     0.65708    
         TOTAL TIME 2.07360E+07 3.45600E+05  5760.0      240.00     0.65708    


end timestep


start timestep kper="1" kstp="7" mode="normal"

 UBDSV1 SAVING           STO-SS ON UNIT   1021 AT TIME STEP      7, STRESS PERIOD      1
 UBDSV1 SAVING     FLOW-JA-FACE ON UNIT   1021 AT TIME STEP      7, STRESS PERIOD      1
 UBDSV06 SAVING       DATA-SPDIS IN MODEL EX-GWF-FHB       PACKAGE NPF             CONNECTED TO MODEL EX-GWF-FHB       PACKAGE NPF              ON UNIT   1021 AT TIME STEP      7, STRESS PERIOD      1
 UBDSV06 SAVING              WEL IN MODEL EX-GWF-FHB       PACKAGE EX-GWF-FHB      CONNECTED TO MODEL EX-GWF-FHB       PACKAGE WEL              ON UNIT   1021 AT TIME STEP      7, STRESS PERIOD      1
 UBDSV06 SAVING              CHD IN MODEL EX-GWF-FHB       PACKAGE EX-GWF-FHB      CONNECTED TO MODEL EX-GWF-FHB       PACKAGE CHD              ON UNIT   1021 AT TIME STEP      7, STRESS PERIOD      1
1
  HEAD IN LAYER   1 AT END OF TIME STEP   7 IN STRESS PERIOD    1
  ---------------------------------------------------------------------------

                1               2               3               4               5               6               7               8               9              10
 ................................................................................................................................................................
   1      4.20158         3.90362         3.54348         3.17037         2.79454         2.41815         2.04165         1.66512         1.28859        0.912052    
   2      4.49954         3.96581         3.55646         3.17308         2.79511         2.41827         2.04167         1.66512         1.28859        0.912052    
   3      4.20158         3.90362         3.54348         3.17037         2.79454         2.41815         2.04165         1.66512         1.28859        0.912052    

 HEAD WILL BE SAVED ON UNIT 1022 AT END OF TIME STEP    7, STRESS PERIOD    1


  VOLUME BUDGET FOR ENTIRE MODEL AT END OF TIME STEP    7, STRESS PERIOD   1
  ---------------------------------------------------------------------------------------------------

     CUMULATIVE VOLUME      L**3       RATES FOR THIS TIME STEP      L**3/T          PACKAGE NAME    
     ------------------                 ------------------------                     ----------------

           IN:                                      IN:
           ---                                      ---
              STO-SS =           0.0000                STO-SS =           0.0000     STORAGE                          
                 WEL =     1143713.3550                   WEL =        5648.2085     WEL                              
                 CHD =           0.0000                   CHD =           0.0000     CHD                              

            TOTAL IN =     1143713.3550              TOTAL IN =        5648.2085

          OUT:                                     OUT:
          ----                                     ----
              STO-SS =          75.4578                STO-SS =           0.2052     STORAGE                          
                 WEL =           0.0000                   WEL =           0.0000     WEL                              
                 CHD =     1143637.8972                   CHD =        5648.0033     CHD                              

           TOTAL OUT =     1143713.3551             TOTAL OUT =        5648.2085

            IN - OUT =      -1.9614E-06              IN - OUT =      -2.9360E-08

 PERCENT DISCREPANCY =          -0.00     PERCENT DISCREPANCY =          -0.00




         TIME SUMMARY AT END OF TIME STEP    7 IN STRESS PERIOD    1
                    SECONDS     MINUTES      HOURS       DAYS        YEARS
                    -----------------------------------------------------------
   TIME STEP LENGTH 3.45600E+06  57600.      960.00      40.000     0.10951    
 STRESS PERIOD TIME 2.41920E+07 4.03200E+05  6720.0      280.00     0.76660    
         TOTAL TIME 2.41920E+07 4.03200E+05  6720.0      280.00     0.76660    


end timestep


start timestep kper="1" kstp="8" mode="normal"

 UBDSV1 SAVING           STO-SS ON UNIT   1021 AT TIME STEP      8, STRESS PERIOD      1
 UBDSV1 SAVING     FLOW-JA-FACE ON UNIT   1021 AT TIME STEP      8, STRESS PERIOD      1
 UBDSV06 SAVING       DATA-SPDIS IN MODEL EX-GWF-FHB       PACKAGE NPF             CONNECTED TO MODEL EX-GWF-FHB       PACKAGE NPF              ON UNIT   1021 AT TIME STEP      8, STRESS PERIOD      1
 UBDSV06 SAVING              WEL IN MODEL EX-GWF-FHB       PACKAGE EX-GWF-FHB      CONNECTED TO MODEL EX-GWF-FHB       PACKAGE WEL              ON UNIT   1021 AT TIME STEP      8, STRESS PERIOD      1
 UBDSV06 SAVING              CHD IN MODEL EX-GWF-FHB       PACKAGE EX-GWF-FHB      CONNECTED TO MODEL EX-GWF-FHB       PACKAGE CHD              ON UNIT   1021 AT TIME STEP      8, STRESS PERIOD      1
1
  HEAD IN LAYER   1 AT END OF TIME STEP   8 IN STRESS PERIOD    1
  ---------------------------------------------------------------------------

                1               2               3               4               5               6               7               8               9              10
 ................................................................................................................................................................
   1      4.58621         4.27112         3.89026         3.49568         3.09823         2.70019         2.30202         1.90383         1.50563         1.10744    
   2      4.90131         4.33688         3.90399         3.49854         3.09883         2.70031         2.30205         1.90383         1.50563         1.10744    
   3      4.58621         4.27112         3.89026         3.49568         3.09823         2.70019         2.30202         1.90383         1.50563         1.10744    

 HEAD WILL BE SAVED ON UNIT 1022 AT END OF TIME STEP    8, STRESS PERIOD    1


  VOLUME BUDGET FOR ENTIRE MODEL AT END OF TIME STEP    8, STRESS PERIOD   1
  ---------------------------------------------------------------------------------------------------

     CUMULATIVE VOLUME      L**3       RATES FOR THIS TIME STEP      L**3/T          PACKAGE NAME    
     ------------------                 ------------------------                     ----------------

           IN:                                      IN:
           ---                                      ---
              STO-SS =           0.0000                STO-SS =           0.0000     STORAGE                          
                 WEL =     1382638.9749                   WEL =        5973.1405     WEL                              
                 CHD =           0.0000                   CHD =           0.0000     CHD                              

            TOTAL IN =     1382638.9749              TOTAL IN =        5973.1405

          OUT:                                     OUT:
          ----                                     ----
              STO-SS =          83.6577                STO-SS =           0.2050     STORAGE                          
                 WEL =           0.0000                   WEL =           0.0000     WEL                              
                 CHD =     1382555.3172                   CHD =        5972.9355     CHD                              

           TOTAL OUT =     1382638.9749             TOTAL OUT =        5973.1405

            IN - OUT =      -2.6440E-06              IN - OUT =      -1.7071E-08

 PERCENT DISCREPANCY =          -0.00     PERCENT DISCREPANCY =          -0.00




         TIME SUMMARY AT END OF TIME STEP    8 IN STRESS PERIOD    1
                    SECONDS     MINUTES      HOURS       DAYS        YEARS
                    -----------------------------------------------------------
   TIME STEP LENGTH 3.45600E+06  57600.      960.00      40.000     0.10951    
 STRESS PERIOD TIME 2.76480E+07 4.60800E+05  7680.0      320.00     0.87611    
         TOTAL TIME 2.76480E+07 4.60800E+05  7680.0      320.00     0.87611    


end timestep


start timestep kper="1" kstp="9" mode="normal"

 UBDSV1 SAVING           STO-SS ON UNIT   1021 AT TIME STEP      9, STRESS PERIOD      1
 UBDSV1 SAVING     FLOW-JA-FACE ON UNIT   1021 AT TIME STEP      9, STRESS PERIOD      1
 UBDSV06 SAVING       DATA-SPDIS IN MODEL EX-GWF-FHB       PACKAGE NPF             CONNECTED TO MODEL EX-GWF-FHB       PACKAGE NPF              ON UNIT   1021 AT TIME STEP      9, STRESS PERIOD      1
 UBDSV06 SAVING              WEL IN MODEL EX-GWF-FHB       PACKAGE EX-GWF-FHB      CONNECTED TO MODEL EX-GWF-FHB       PACKAGE WEL              ON UNIT   1021 AT TIME STEP      9, STRESS PERIOD      1
 UBDSV06 SAVING              CHD IN MODEL EX-GWF-FHB       PACKAGE EX-GWF-FHB      CONNECTED TO MODEL EX-GWF-FHB       PACKAGE CHD              ON UNIT   1021 AT TIME STEP      9, STRESS PERIOD      1
1
  HEAD IN LAYER   1 AT END OF TIME STEP   9 IN STRESS PERIOD    1
  ---------------------------------------------------------------------------

                1               2               3               4               5               6               7               8               9              10
 ................................................................................................................................................................
   1      4.86867         4.55793         4.18234         3.79322         3.40127         3.00873         2.61607         2.22339         1.83070         1.43802    
   2      5.17941         4.62279         4.19588         3.79604         3.40186         3.00885         2.61610         2.22339         1.83070         1.43802    
   3      4.86867         4.55793         4.18234         3.79322         3.40127         3.00873         2.61607         2.22339         1.83070         1.43802    

 HEAD WILL BE SAVED ON UNIT 1022 AT END OF TIME STEP    9, STRESS PERIOD    1


  VOLUME BUDGET FOR ENTIRE MODEL AT END OF TIME STEP    9, STRESS PERIOD   1
  ---------------------------------------------------------------------------------------------------

     CUMULATIVE VOLUME      L**3       RATES FOR THIS TIME STEP      L**3/T          PACKAGE NAME    
     ------------------                 ------------------------                     ----------------

           IN:                                      IN:
           ---                                      ---
              STO-SS =           0.0000                STO-SS =           0.0000     STORAGE                          
                 WEL =     1618258.8096                   WEL =        5890.4959     WEL                              
                 CHD =           0.0000                   CHD =           0.0000     CHD                              

            TOTAL IN =     1618258.8096              TOTAL IN =        5890.4959

          OUT:                                     OUT:
          ----                                     ----
              STO-SS =          91.8396                STO-SS =           0.2045     STORAGE                          
                 WEL =           0.0000                   WEL =           0.0000     WEL                              
                 CHD =     1618166.9700                   CHD =        5890.2913     CHD                              

           TOTAL OUT =     1618258.8096             TOTAL OUT =        5890.4959

            IN - OUT =      -2.6543E-06              IN - OUT =      -2.5011E-10

 PERCENT DISCREPANCY =          -0.00     PERCENT DISCREPANCY =          -0.00




         TIME SUMMARY AT END OF TIME STEP    9 IN STRESS PERIOD    1
                    SECONDS     MINUTES      HOURS       DAYS        YEARS
                    -----------------------------------------------------------
   TIME STEP LENGTH 3.45600E+06  57600.      960.00      40.000     0.10951    
 STRESS PERIOD TIME 3.11040E+07 5.18400E+05  8640.0      360.00     0.98563    
         TOTAL TIME 3.11040E+07 5.18400E+05  8640.0      360.00     0.98563    


end timestep


start timestep kper="1" kstp="10" mode="normal"

 UBDSV1 SAVING           STO-SS ON UNIT   1021 AT TIME STEP     10, STRESS PERIOD      1
 UBDSV1 SAVING     FLOW-JA-FACE ON UNIT   1021 AT TIME STEP     10, STRESS PERIOD      1
 UBDSV06 SAVING       DATA-SPDIS IN MODEL EX-GWF-FHB       PACKAGE NPF             CONNECTED TO MODEL EX-GWF-FHB       PACKAGE NPF              ON UNIT   1021 AT TIME STEP     10, STRESS PERIOD      1
 UBDSV06 SAVING              WEL IN MODEL EX-GWF-FHB       PACKAGE EX-GWF-FHB      CONNECTED TO MODEL EX-GWF-FHB       PACKAGE WEL              ON UNIT   1021 AT TIME STEP     10, STRESS PERIOD      1
 UBDSV06 SAVING              CHD IN MODEL EX-GWF-FHB       PACKAGE EX-GWF-FHB      CONNECTED TO MODEL EX-GWF-FHB       PACKAGE CHD              ON UNIT   1021 AT TIME STEP     10, STRESS PERIOD      1
1
  HEAD IN LAYER   1 AT END OF TIME STEP  10 IN STRESS PERIOD    1
  ---------------------------------------------------------------------------

                1               2               3               4               5               6               7               8               9              10
 ................................................................................................................................................................
   1      5.15111         4.84474         4.47441         4.09075         3.70430         3.31727         2.93012         2.54295         2.15577         1.76860    
   2      5.45749         4.90868         4.48776         4.09353         3.70488         3.31739         2.93015         2.54295         2.15577         1.76860    
   3      5.15111         4.84474         4.47441         4.09075         3.70430         3.31727         2.93012         2.54295         2.15577         1.76860    

 HEAD WILL BE SAVED ON UNIT 1022 AT END OF TIME STEP   10, STRESS PERIOD    1


  VOLUME BUDGET FOR ENTIRE MODEL AT END OF TIME STEP   10, STRESS PERIOD   1
  ---------------------------------------------------------------------------------------------------

     CUMULATIVE VOLUME      L**3       RATES FOR THIS TIME STEP      L**3/T          PACKAGE NAME    
     ------------------                 ------------------------                     ----------------

           IN:                                      IN:
           ---                                      ---
              STO-SS =           0.0000                STO-SS =           0.0000     STORAGE                          
                 WEL =     1850572.8592                   WEL =        5807.8512     WEL                              
                 CHD =           0.0000                   CHD =           0.0000     CHD                              

            TOTAL IN =     1850572.8592              TOTAL IN =        5807.8512

          OUT:                                     OUT:
          ----                                     ----
              STO-SS =         100.0215                STO-SS =           0.2045     STORAGE                          
                 WEL =           0.0000                   WEL =           0.0000     WEL                              
                 CHD =     1850472.8377                   CHD =        5807.6467     CHD                              

           TOTAL OUT =     1850572.8592             TOTAL OUT =        5807.8512

            IN - OUT =      -2.6647E-06              IN - OUT =      -2.6557E-10

 PERCENT DISCREPANCY =          -0.00     PERCENT DISCREPANCY =          -0.00




         TIME SUMMARY AT END OF TIME STEP   10 IN STRESS PERIOD    1
                    SECONDS     MINUTES      HOURS       DAYS        YEARS
                    -----------------------------------------------------------
   TIME STEP LENGTH 3.45600E+06  57600.      960.00      40.000     0.10951    
 STRESS PERIOD TIME 3.45600E+07 5.76000E+05  9600.0      400.00      1.0951    
         TOTAL TIME 3.45600E+07 5.76000E+05  9600.0      400.00      1.0951    


end timestep


start timestep kper="2" kstp="1" mode="normal"


 END OF FILE DETECTED IN OUTPUT CONTROL.
 CURRENT OUTPUT CONTROL SETTINGS WILL BE 
 REPEATED UNTIL THE END OF THE SIMULATION.

 OUTPUT CONTROL FOR STRESS PERIOD 2 IS REPEATED USING SETTINGS FROM A PREVIOUS STRESS PERIOD.
 UBDSV1 SAVING           STO-SS ON UNIT   1021 AT TIME STEP      1, STRESS PERIOD      2
 UBDSV1 SAVING     FLOW-JA-FACE ON UNIT   1021 AT TIME STEP      1, STRESS PERIOD      2
 UBDSV06 SAVING       DATA-SPDIS IN MODEL EX-GWF-FHB       PACKAGE NPF             CONNECTED TO MODEL EX-GWF-FHB       PACKAGE NPF              ON UNIT   1021 AT TIME STEP      1, STRESS PERIOD      2
 UBDSV06 SAVING              WEL IN MODEL EX-GWF-FHB       PACKAGE EX-GWF-FHB      CONNECTED TO MODEL EX-GWF-FHB       PACKAGE WEL              ON UNIT   1021 AT TIME STEP      1, STRESS PERIOD      2
 UBDSV06 SAVING              CHD IN MODEL EX-GWF-FHB       PACKAGE EX-GWF-FHB      CONNECTED TO MODEL EX-GWF-FHB       PACKAGE CHD              ON UNIT   1021 AT TIME STEP      1, STRESS PERIOD      2
1
  HEAD IN LAYER   1 AT END OF TIME STEP   1 IN STRESS PERIOD    2
  ---------------------------------------------------------------------------

                1               2               3               4               5               6               7               8               9              10
 ................................................................................................................................................................
   1      5.50417         5.20324         4.83951         4.46267         4.08309         3.70295         3.32268         2.94240         2.56211         2.18182    
   2      5.80510         5.26605         4.85262         4.46540         4.08366         3.70306         3.32271         2.94240         2.56211         2.18182    
   3      5.50417         5.20324         4.83951         4.46267         4.08309         3.70295         3.32268         2.94240         2.56211         2.18182    

 HEAD WILL BE SAVED ON UNIT 1022 AT END OF TIME STEP    1, STRESS PERIOD    2


  VOLUME BUDGET FOR ENTIRE MODEL AT END OF TIME STEP    1, STRESS PERIOD   2
  ---------------------------------------------------------------------------------------------------

     CUMULATIVE VOLUME      L**3       RATES FOR THIS TIME STEP      L**3/T          PACKAGE NAME    
     ------------------                 ------------------------                     ----------------

           IN:                                      IN:
           ---                                      ---
              STO-SS =           0.0000                STO-SS =           0.0000     STORAGE                          
                 WEL =     2135800.1319                   WEL =        5704.5455     WEL                              
                 CHD =           0.0000                   CHD =           0.0000     CHD                              

            TOTAL IN =     2135800.1319              TOTAL IN =        5704.5455

          OUT:                                     OUT:
          ----                                     ----
              STO-SS =         110.2487                STO-SS =           0.2045     STORAGE                          
                 WEL =           0.0000                   WEL =           0.0000     WEL                              
                 CHD =     2135689.8832                   CHD =        5704.3409     CHD                              

           TOTAL OUT =     2135800.1319             TOTAL OUT =        5704.5455

            IN - OUT =      -2.6710E-06              IN - OUT =      -1.1823E-10

 PERCENT DISCREPANCY =          -0.00     PERCENT DISCREPANCY =          -0.00




         TIME SUMMARY AT END OF TIME STEP    1 IN STRESS PERIOD    2
                    SECONDS     MINUTES      HOURS       DAYS        YEARS
                    -----------------------------------------------------------
   TIME STEP LENGTH 4.32000E+06  72000.      1200.0      50.000     0.13689    
 STRESS PERIOD TIME 4.32000E+06  72000.      1200.0      50.000     0.13689    
         TOTAL TIME 3.88800E+07 6.48000E+05  10800.      450.00      1.2320    


end timestep


start timestep kper="2" kstp="2" mode="normal"

 UBDSV1 SAVING           STO-SS ON UNIT   1021 AT TIME STEP      2, STRESS PERIOD      2
 UBDSV1 SAVING     FLOW-JA-FACE ON UNIT   1021 AT TIME STEP      2, STRESS PERIOD      2
 UBDSV06 SAVING       DATA-SPDIS IN MODEL EX-GWF-FHB       PACKAGE NPF             CONNECTED TO MODEL EX-GWF-FHB       PACKAGE NPF              ON UNIT   1021 AT TIME STEP      2, STRESS PERIOD      2
 UBDSV06 SAVING              WEL IN MODEL EX-GWF-FHB       PACKAGE EX-GWF-FHB      CONNECTED TO MODEL EX-GWF-FHB       PACKAGE WEL              ON UNIT   1021 AT TIME STEP      2, STRESS PERIOD      2
 UBDSV06 SAVING              CHD IN MODEL EX-GWF-FHB       PACKAGE EX-GWF-FHB      CONNECTED TO MODEL EX-GWF-FHB       PACKAGE CHD              ON UNIT   1021 AT TIME STEP      2, STRESS PERIOD      2
1
  HEAD IN LAYER   1 AT END OF TIME STEP   2 IN STRESS PERIOD    2
  ---------------------------------------------------------------------------

                1               2               3               4               5               6               7               8               9              10
 ................................................................................................................................................................
   1      5.85723         5.56175         5.20460         4.83458         4.46188         4.08862         3.71525         3.34185         2.96844         2.59504    
   2      6.15270         5.62342         5.21747         4.83727         4.46244         4.08874         3.71527         3.34185         2.96844         2.59504    
   3      5.85723         5.56175         5.20460         4.83458         4.46188         4.08862         3.71525         3.34185         2.96844         2.59504    

 HEAD WILL BE SAVED ON UNIT 1022 AT END OF TIME STEP    2, STRESS PERIOD    2


  VOLUME BUDGET FOR ENTIRE MODEL AT END OF TIME STEP    2, STRESS PERIOD   2
  ---------------------------------------------------------------------------------------------------

     CUMULATIVE VOLUME      L**3       RATES FOR THIS TIME STEP      L**3/T          PACKAGE NAME    
     ------------------                 ------------------------                     ----------------

           IN:                                      IN:
           ---                                      ---
              STO-SS =           0.0000                STO-SS =           0.0000     STORAGE                          
                 WEL =     2415862.1154                   WEL =        5601.2397     WEL                              
                 CHD =           0.0000                   CHD =           0.0000     CHD                              

            TOTAL IN =     2415862.1154              TOTAL IN =        5601.2397

          OUT:                                     OUT:
          ----                                     ----
              STO-SS =         120.4760                STO-SS =           0.2045     STORAGE                          
                 WEL =           0.0000                   WEL =           0.0000     WEL                              
                 CHD =     2415741.6394                   CHD =        5601.0351     CHD                              

           TOTAL OUT =     2415862.1154             TOTAL OUT =        5601.2397

            IN - OUT =      -2.6789E-06              IN - OUT =      -1.6371E-10

 PERCENT DISCREPANCY =          -0.00     PERCENT DISCREPANCY =          -0.00




         TIME SUMMARY AT END OF TIME STEP    2 IN STRESS PERIOD    2
                    SECONDS     MINUTES      HOURS       DAYS        YEARS
                    -----------------------------------------------------------
   TIME STEP LENGTH 4.32000E+06  72000.      1200.0      50.000     0.13689    
 STRESS PERIOD TIME 8.64000E+06 1.44000E+05  2400.0      100.00     0.27379    
         TOTAL TIME 4.32000E+07 7.20000E+05  12000.      500.00      1.3689    


end timestep


start timestep kper="2" kstp="3" mode="normal"

 UBDSV1 SAVING           STO-SS ON UNIT   1021 AT TIME STEP      3, STRESS PERIOD      2
 UBDSV1 SAVING     FLOW-JA-FACE ON UNIT   1021 AT TIME STEP      3, STRESS PERIOD      2
 UBDSV06 SAVING       DATA-SPDIS IN MODEL EX-GWF-FHB       PACKAGE NPF             CONNECTED TO MODEL EX-GWF-FHB       PACKAGE NPF              ON UNIT   1021 AT TIME STEP      3, STRESS PERIOD      2
 UBDSV06 SAVING              WEL IN MODEL EX-GWF-FHB       PACKAGE EX-GWF-FHB      CONNECTED TO MODEL EX-GWF-FHB       PACKAGE WEL              ON UNIT   1021 AT TIME STEP      3, STRESS PERIOD      2
 UBDSV06 SAVING              CHD IN MODEL EX-GWF-FHB       PACKAGE EX-GWF-FHB      CONNECTED TO MODEL EX-GWF-FHB       PACKAGE CHD              ON UNIT   1021 AT TIME STEP      3, STRESS PERIOD      2
1
  HEAD IN LAYER   1 AT END OF TIME STEP   3 IN STRESS PERIOD    2
  ---------------------------------------------------------------------------

                1               2               3               4               5               6               7               8               9              10
 ................................................................................................................................................................
   1      6.21028         5.92025         5.56969         5.20650         4.84067         4.47430         4.10781         3.74130         3.37478         3.00826    
   2      6.50031         5.98079         5.58233         5.20914         4.84122         4.47441         4.10783         3.74130         3.37478         3.00826    
   3      6.21028         5.92025         5.56969         5.20650         4.84067         4.47430         4.10781         3.74130         3.37478         3.00826    

 HEAD WILL BE SAVED ON UNIT 1022 AT END OF TIME STEP    3, STRESS PERIOD    2


  VOLUME BUDGET FOR ENTIRE MODEL AT END OF TIME STEP    3, STRESS PERIOD   2
  ---------------------------------------------------------------------------------------------------

     CUMULATIVE VOLUME      L**3       RATES FOR THIS TIME STEP      L**3/T          PACKAGE NAME    
     ------------------                 ------------------------                     ----------------

           IN:                                      IN:
           ---                                      ---
              STO-SS =           0.0000                STO-SS =           0.0000     STORAGE                          
                 WEL =     2690758.8096                   WEL =        5497.9339     WEL                              
                 CHD =           0.0000                   CHD =           0.0000     CHD                              

            TOTAL IN =     2690758.8096              TOTAL IN =        5497.9339

          OUT:                                     OUT:
          ----                                     ----
              STO-SS =         130.7033                STO-SS =           0.2045     STORAGE                          
                 WEL =           0.0000                   WEL =           0.0000     WEL                              
                 CHD =     2690628.1063                   CHD =        5497.7293     CHD                              

           TOTAL OUT =     2690758.8096             TOTAL OUT =        5497.9339

            IN - OUT =      -2.6873E-06              IN - OUT =      -1.7008E-10

 PERCENT DISCREPANCY =          -0.00     PERCENT DISCREPANCY =          -0.00




         TIME SUMMARY AT END OF TIME STEP    3 IN STRESS PERIOD    2
                    SECONDS     MINUTES      HOURS       DAYS        YEARS
                    -----------------------------------------------------------
   TIME STEP LENGTH 4.32000E+06  72000.      1200.0      50.000     0.13689    
 STRESS PERIOD TIME 1.29600E+07 2.16000E+05  3600.0      150.00     0.41068    
         TOTAL TIME 4.75200E+07 7.92000E+05  13200.      550.00      1.5058    


end timestep


start timestep kper="2" kstp="4" mode="normal"

 UBDSV1 SAVING           STO-SS ON UNIT   1021 AT TIME STEP      4, STRESS PERIOD      2
 UBDSV1 SAVING     FLOW-JA-FACE ON UNIT   1021 AT TIME STEP      4, STRESS PERIOD      2
 UBDSV06 SAVING       DATA-SPDIS IN MODEL EX-GWF-FHB       PACKAGE NPF             CONNECTED TO MODEL EX-GWF-FHB       PACKAGE NPF              ON UNIT   1021 AT TIME STEP      4, STRESS PERIOD      2
 UBDSV06 SAVING              WEL IN MODEL EX-GWF-FHB       PACKAGE EX-GWF-FHB      CONNECTED TO MODEL EX-GWF-FHB       PACKAGE WEL              ON UNIT   1021 AT TIME STEP      4, STRESS PERIOD      2
 UBDSV06 SAVING              CHD IN MODEL EX-GWF-FHB       PACKAGE EX-GWF-FHB      CONNECTED TO MODEL EX-GWF-FHB       PACKAGE CHD              ON UNIT   1021 AT TIME STEP      4, STRESS PERIOD      2
1
  HEAD IN LAYER   1 AT END OF TIME STEP   4 IN STRESS PERIOD    2
  ---------------------------------------------------------------------------

                1               2               3               4               5               6               7               8               9              10
 ................................................................................................................................................................
   1      6.56334         6.27876         5.93479         5.57842         5.21946         4.85997         4.50037         4.14074         3.78112         3.42149    
   2      6.84792         6.33815         5.94718         5.58101         5.22000         4.86009         4.50039         4.14075         3.78112         3.42149    
   3      6.56334         6.27876         5.93479         5.57842         5.21946         4.85997         4.50037         4.14074         3.78112         3.42149    

 HEAD WILL BE SAVED ON UNIT 1022 AT END OF TIME STEP    4, STRESS PERIOD    2


  VOLUME BUDGET FOR ENTIRE MODEL AT END OF TIME STEP    4, STRESS PERIOD   2
  ---------------------------------------------------------------------------------------------------

     CUMULATIVE VOLUME      L**3       RATES FOR THIS TIME STEP      L**3/T          PACKAGE NAME    
     ------------------                 ------------------------                     ----------------

           IN:                                      IN:
           ---                                      ---
              STO-SS =           0.0000                STO-SS =           0.0000     STORAGE                          
                 WEL =     2960490.2146                   WEL =        5394.6281     WEL                              
                 CHD =           0.0000                   CHD =           0.0000     CHD                              

            TOTAL IN =     2960490.2146              TOTAL IN =        5394.6281

          OUT:                                     OUT:
          ----                                     ----
              STO-SS =         140.9305                STO-SS =           0.2045     STORAGE                          
                 WEL =           0.0000                   WEL =           0.0000     WEL                              
                 CHD =     2960349.2840                   CHD =        5394.4236     CHD                              

           TOTAL OUT =     2960490.2146             TOTAL OUT =        5394.6281

            IN - OUT =      -2.6962E-06              IN - OUT =      -1.6371E-10

 PERCENT DISCREPANCY =          -0.00     PERCENT DISCREPANCY =          -0.00




         TIME SUMMARY AT END OF TIME STEP    4 IN STRESS PERIOD    2
                    SECONDS     MINUTES      HOURS       DAYS        YEARS
                    -----------------------------------------------------------
   TIME STEP LENGTH 4.32000E+06  72000.      1200.0      50.000     0.13689    
 STRESS PERIOD TIME 1.72800E+07 2.88000E+05  4800.0      200.00     0.54757    
         TOTAL TIME 5.18400E+07 8.64000E+05  14400.      600.00      1.6427    


end timestep


start timestep kper="3" kstp="1" mode="normal"


 OUTPUT CONTROL FOR STRESS PERIOD 3 IS REPEATED USING SETTINGS FROM A PREVIOUS STRESS PERIOD.
 UBDSV1 SAVING           STO-SS ON UNIT   1021 AT TIME STEP      1, STRESS PERIOD      3
 UBDSV1 SAVING     FLOW-JA-FACE ON UNIT   1021 AT TIME STEP      1, STRESS PERIOD      3
 UBDSV06 SAVING       DATA-SPDIS IN MODEL EX-GWF-FHB       PACKAGE NPF             CONNECTED TO MODEL EX-GWF-FHB       PACKAGE NPF              ON UNIT   1021 AT TIME STEP      1, STRESS PERIOD      3
 UBDSV06 SAVING              WEL IN MODEL EX-GWF-FHB       PACKAGE EX-GWF-FHB      CONNECTED TO MODEL EX-GWF-FHB       PACKAGE WEL              ON UNIT   1021 AT TIME STEP      1, STRESS PERIOD      3
 UBDSV06 SAVING              CHD IN MODEL EX-GWF-FHB       PACKAGE EX-GWF-FHB      CONNECTED TO MODEL EX-GWF-FHB       PACKAGE CHD              ON UNIT   1021 AT TIME STEP      1, STRESS PERIOD      3
1
  HEAD IN LAYER   1 AT END OF TIME STEP   1 IN STRESS PERIOD    3
  ---------------------------------------------------------------------------

                1               2               3               4               5               6               7               8               9              10
 ................................................................................................................................................................
   1      7.03408         6.75677         6.42158         6.07431         5.72452         5.37421         5.02379         4.67334         4.32290         3.97245    
   2      7.31139         6.81465         6.43366         6.07683         5.72505         5.37432         5.02381         4.67335         4.32290         3.97245    
   3      7.03408         6.75677         6.42158         6.07431         5.72452         5.37421         5.02379         4.67334         4.32290         3.97245    

 HEAD WILL BE SAVED ON UNIT 1022 AT END OF TIME STEP    1, STRESS PERIOD    3


  VOLUME BUDGET FOR ENTIRE MODEL AT END OF TIME STEP    1, STRESS PERIOD   3
  ---------------------------------------------------------------------------------------------------

     CUMULATIVE VOLUME      L**3       RATES FOR THIS TIME STEP      L**3/T          PACKAGE NAME    
     ------------------                 ------------------------                     ----------------

           IN:                                      IN:
           ---                                      ---
              STO-SS =           0.0000                STO-SS =           0.0000     STORAGE                          
                 WEL =     3310949.3514                   WEL =        5256.8871     WEL                              
                 CHD =           0.0000                   CHD =           0.0000     CHD                              

            TOTAL IN =     3310949.3514              TOTAL IN =        5256.8871

          OUT:                                     OUT:
          ----                                     ----
              STO-SS =         154.5669                STO-SS =           0.2045     STORAGE                          
                 WEL =           0.0000                   WEL =           0.0000     WEL                              
                 CHD =     3310794.7845                   CHD =        5256.6825     CHD                              

           TOTAL OUT =     3310949.3514             TOTAL OUT =        5256.8871

            IN - OUT =      -2.7083E-06              IN - OUT =      -1.8463E-10

 PERCENT DISCREPANCY =          -0.00     PERCENT DISCREPANCY =          -0.00




         TIME SUMMARY AT END OF TIME STEP    1 IN STRESS PERIOD    3
                    SECONDS     MINUTES      HOURS       DAYS        YEARS
                    -----------------------------------------------------------
   TIME STEP LENGTH 5.76000E+06  96000.      1600.0      66.667     0.18252    
 STRESS PERIOD TIME 5.76000E+06  96000.      1600.0      66.667     0.18252    
         TOTAL TIME 5.76000E+07 9.60000E+05  16000.      666.67      1.8252    


end timestep


start timestep kper="3" kstp="2" mode="normal"

 UBDSV1 SAVING           STO-SS ON UNIT   1021 AT TIME STEP      2, STRESS PERIOD      3
 UBDSV1 SAVING     FLOW-JA-FACE ON UNIT   1021 AT TIME STEP      2, STRESS PERIOD      3
 UBDSV06 SAVING       DATA-SPDIS IN MODEL EX-GWF-FHB       PACKAGE NPF             CONNECTED TO MODEL EX-GWF-FHB       PACKAGE NPF              ON UNIT   1021 AT TIME STEP      2, STRESS PERIOD      3
 UBDSV06 SAVING              WEL IN MODEL EX-GWF-FHB       PACKAGE EX-GWF-FHB      CONNECTED TO MODEL EX-GWF-FHB       PACKAGE WEL              ON UNIT   1021 AT TIME STEP      2, STRESS PERIOD      3
 UBDSV06 SAVING              CHD IN MODEL EX-GWF-FHB       PACKAGE EX-GWF-FHB      CONNECTED TO MODEL EX-GWF-FHB       PACKAGE CHD              ON UNIT   1021 AT TIME STEP      2, STRESS PERIOD      3
1
  HEAD IN LAYER   1 AT END OF TIME STEP   2 IN STRESS PERIOD    3
  ---------------------------------------------------------------------------

                1               2               3               4               5               6               7               8               9              10
 ................................................................................................................................................................
   1      7.50482         7.23477         6.90837         6.57020         6.22957         5.88844         5.54720         5.20594         4.86468         4.52342    
   2      7.77487         7.29114         6.92013         6.57265         6.23009         5.88855         5.54722         5.20595         4.86468         4.52342    
   3      7.50482         7.23477         6.90837         6.57020         6.22957         5.88844         5.54720         5.20594         4.86468         4.52342    

 HEAD WILL BE SAVED ON UNIT 1022 AT END OF TIME STEP    2, STRESS PERIOD    3


  VOLUME BUDGET FOR ENTIRE MODEL AT END OF TIME STEP    2, STRESS PERIOD   3
  ---------------------------------------------------------------------------------------------------

     CUMULATIVE VOLUME      L**3       RATES FOR THIS TIME STEP      L**3/T          PACKAGE NAME    
     ------------------                 ------------------------                     ----------------

           IN:                                      IN:
           ---                                      ---
              STO-SS =           0.0000                STO-SS =           0.0000     STORAGE                          
                 WEL =     3652225.7517                   WEL =        5119.1460     WEL                              
                 CHD =           0.0000                   CHD =           0.0000     CHD                              

            TOTAL IN =     3652225.7517              TOTAL IN =        5119.1460

          OUT:                                     OUT:
          ----                                     ----
              STO-SS =         168.2033                STO-SS =           0.2045     STORAGE                          
                 WEL =           0.0000                   WEL =           0.0000     WEL                              
                 CHD =     3652057.5485                   CHD =        5118.9415     CHD                              

           TOTAL OUT =     3652225.7517             TOTAL OUT =        5119.1460

            IN - OUT =      -2.7199E-06              IN - OUT =      -1.7280E-10

 PERCENT DISCREPANCY =          -0.00     PERCENT DISCREPANCY =          -0.00




         TIME SUMMARY AT END OF TIME STEP    2 IN STRESS PERIOD    3
                    SECONDS     MINUTES      HOURS       DAYS        YEARS
                    -----------------------------------------------------------
   TIME STEP LENGTH 5.76000E+06  96000.      1600.0      66.667     0.18252    
 STRESS PERIOD TIME 1.15200E+07 1.92000E+05  3200.0      133.33     0.36505    
         TOTAL TIME 6.33600E+07 1.05600E+06  17600.      733.33      2.0078    


end timestep


start timestep kper="3" kstp="3" mode="normal"

 UBDSV1 SAVING           STO-SS ON UNIT   1021 AT TIME STEP      3, STRESS PERIOD      3
 UBDSV1 SAVING     FLOW-JA-FACE ON UNIT   1021 AT TIME STEP      3, STRESS PERIOD      3
 UBDSV06 SAVING       DATA-SPDIS IN MODEL EX-GWF-FHB       PACKAGE NPF             CONNECTED TO MODEL EX-GWF-FHB       PACKAGE NPF              ON UNIT   1021 AT TIME STEP      3, STRESS PERIOD      3
 UBDSV06 SAVING              WEL IN MODEL EX-GWF-FHB       PACKAGE EX-GWF-FHB      CONNECTED TO MODEL EX-GWF-FHB       PACKAGE WEL              ON UNIT   1021 AT TIME STEP      3, STRESS PERIOD      3
 UBDSV06 SAVING              CHD IN MODEL EX-GWF-FHB       PACKAGE EX-GWF-FHB      CONNECTED TO MODEL EX-GWF-FHB       PACKAGE CHD              ON UNIT   1021 AT TIME STEP      3, STRESS PERIOD      3
1
  HEAD IN LAYER   1 AT END OF TIME STEP   3 IN STRESS PERIOD    3
  ---------------------------------------------------------------------------

                1               2               3               4               5               6               7               8               9              10
 ................................................................................................................................................................
   1      7.88316         7.61031         7.28052         6.93884         6.59469         6.25001         5.90523         5.56043         5.21562         4.87081    
   2      8.15601         7.66726         7.29241         6.94132         6.59520         6.25012         5.90525         5.56043         5.21562         4.87081    
   3      7.88316         7.61031         7.28052         6.93884         6.59469         6.25001         5.90523         5.56043         5.21562         4.87081    

 HEAD WILL BE SAVED ON UNIT 1022 AT END OF TIME STEP    3, STRESS PERIOD    3


  VOLUME BUDGET FOR ENTIRE MODEL AT END OF TIME STEP    3, STRESS PERIOD   3
  ---------------------------------------------------------------------------------------------------

     CUMULATIVE VOLUME      L**3       RATES FOR THIS TIME STEP      L**3/T          PACKAGE NAME    
     ------------------                 ------------------------                     ----------------

           IN:                                      IN:
           ---                                      ---
              STO-SS =           0.0000                STO-SS =           0.0000     STORAGE                          
                 WEL =     3997042.3387                   WEL =        5172.2488     WEL                              
                 CHD =           0.0000                   CHD =           0.0000     CHD                              

            TOTAL IN =     3997042.3387              TOTAL IN =        5172.2488

          OUT:                                     OUT:
          ----                                     ----
              STO-SS =         178.0613                STO-SS =           0.1479     STORAGE                          
                 WEL =           0.0000                   WEL =           0.0000     WEL                              
                 CHD =     3996864.2774                   CHD =        5172.1009     CHD                              

           TOTAL OUT =     3997042.3387             TOTAL OUT =        5172.2488

            IN - OUT =      -2.8624E-06              IN - OUT =      -2.1328E-09

 PERCENT DISCREPANCY =          -0.00     PERCENT DISCREPANCY =          -0.00




         TIME SUMMARY AT END OF TIME STEP    3 IN STRESS PERIOD    3
                    SECONDS     MINUTES      HOURS       DAYS        YEARS
                    -----------------------------------------------------------
   TIME STEP LENGTH 5.76000E+06  96000.      1600.0      66.667     0.18252    
 STRESS PERIOD TIME 1.72800E+07 2.88000E+05  4800.0      200.00     0.54757    
         TOTAL TIME 6.91200E+07 1.15200E+06  19200.      800.00      2.1903    


end timestep


start timestep kper="3" kstp="4" mode="normal"

 UBDSV1 SAVING           STO-SS ON UNIT   1021 AT TIME STEP      4, STRESS PERIOD      3
 UBDSV1 SAVING     FLOW-JA-FACE ON UNIT   1021 AT TIME STEP      4, STRESS PERIOD      3
 UBDSV06 SAVING       DATA-SPDIS IN MODEL EX-GWF-FHB       PACKAGE NPF             CONNECTED TO MODEL EX-GWF-FHB       PACKAGE NPF              ON UNIT   1021 AT TIME STEP      4, STRESS PERIOD      3
 UBDSV06 SAVING              WEL IN MODEL EX-GWF-FHB       PACKAGE EX-GWF-FHB      CONNECTED TO MODEL EX-GWF-FHB       PACKAGE WEL              ON UNIT   1021 AT TIME STEP      4, STRESS PERIOD      3
 UBDSV06 SAVING              CHD IN MODEL EX-GWF-FHB       PACKAGE EX-GWF-FHB      CONNECTED TO MODEL EX-GWF-FHB       PACKAGE CHD              ON UNIT   1021 AT TIME STEP      4, STRESS PERIOD      3
1
  HEAD IN LAYER   1 AT END OF TIME STEP   4 IN STRESS PERIOD    3
  ---------------------------------------------------------------------------

                1               2               3               4               5               6               7               8               9              10
 ................................................................................................................................................................
   1      7.66945         7.32929         6.91813         6.49216         6.06310         5.63338         5.20353         4.77366         4.34377         3.91388    
   2      8.00960         7.40028         6.93295         6.49526         6.06374         5.63352         5.20356         4.77366         4.34377         3.91388    
   3      7.66945         7.32929         6.91813         6.49216         6.06310         5.63338         5.20353         4.77366         4.34377         3.91388    

 HEAD WILL BE SAVED ON UNIT 1022 AT END OF TIME STEP    4, STRESS PERIOD    3


  VOLUME BUDGET FOR ENTIRE MODEL AT END OF TIME STEP    4, STRESS PERIOD   3
  ---------------------------------------------------------------------------------------------------

     CUMULATIVE VOLUME      L**3       RATES FOR THIS TIME STEP      L**3/T          PACKAGE NAME    
     ------------------                 ------------------------                     ----------------

           IN:                                      IN:
           ---                                      ---
              STO-SS =          14.3520                STO-SS =           0.2153     STORAGE                          
                 WEL =     4426920.0633                   WEL =        6448.1659     WEL                              
                 CHD =           0.0000                   CHD =           0.0000     CHD                              

            TOTAL IN =     4426934.4152              TOTAL IN =        6448.3811

          OUT:                                     OUT:
          ----                                     ----
              STO-SS =         178.0613                STO-SS =           0.0000     STORAGE                          
                 WEL =           0.0000                   WEL =           0.0000     WEL                              
                 CHD =     4426756.3540                   CHD =        6448.3811     CHD                              

           TOTAL OUT =     4426934.4152             TOTAL OUT =        6448.3811

            IN - OUT =      -3.1292E-06              IN - OUT =      -4.0109E-09

 PERCENT DISCREPANCY =          -0.00     PERCENT DISCREPANCY =          -0.00




         TIME SUMMARY AT END OF TIME STEP    4 IN STRESS PERIOD    3
                    SECONDS     MINUTES      HOURS       DAYS        YEARS
                    -----------------------------------------------------------
   TIME STEP LENGTH 5.76000E+06  96000.      1600.0      66.667     0.18252    
 STRESS PERIOD TIME 2.30400E+07 3.84000E+05  6400.0      266.67     0.73009    
         TOTAL TIME 7.48800E+07 1.24800E+06  20800.      866.67      2.3728    


end timestep


start timestep kper="3" kstp="5" mode="normal"

 UBDSV1 SAVING           STO-SS ON UNIT   1021 AT TIME STEP      5, STRESS PERIOD      3
 UBDSV1 SAVING     FLOW-JA-FACE ON UNIT   1021 AT TIME STEP      5, STRESS PERIOD      3
 UBDSV06 SAVING       DATA-SPDIS IN MODEL EX-GWF-FHB       PACKAGE NPF             CONNECTED TO MODEL EX-GWF-FHB       PACKAGE NPF              ON UNIT   1021 AT TIME STEP      5, STRESS PERIOD      3
 UBDSV06 SAVING              WEL IN MODEL EX-GWF-FHB       PACKAGE EX-GWF-FHB      CONNECTED TO MODEL EX-GWF-FHB       PACKAGE WEL              ON UNIT   1021 AT TIME STEP      5, STRESS PERIOD      3
 UBDSV06 SAVING              CHD IN MODEL EX-GWF-FHB       PACKAGE EX-GWF-FHB      CONNECTED TO MODEL EX-GWF-FHB       PACKAGE CHD              ON UNIT   1021 AT TIME STEP      5, STRESS PERIOD      3
1
  HEAD IN LAYER   1 AT END OF TIME STEP   5 IN STRESS PERIOD    3
  ---------------------------------------------------------------------------

                1               2               3               4               5               6               7               8               9              10
 ................................................................................................................................................................
   1      7.45562         7.04816         6.55565         6.04539         5.53142         5.01668         4.50178         3.98684         3.47189         2.95694    
   2      7.86309         7.13320         6.57340         6.04909         5.53220         5.01684         4.50181         3.98685         3.47189         2.95694    
   3      7.45562         7.04816         6.55565         6.04539         5.53142         5.01668         4.50178         3.98684         3.47189         2.95694    

 HEAD WILL BE SAVED ON UNIT 1022 AT END OF TIME STEP    5, STRESS PERIOD    3


  VOLUME BUDGET FOR ENTIRE MODEL AT END OF TIME STEP    5, STRESS PERIOD   3
  ---------------------------------------------------------------------------------------------------

     CUMULATIVE VOLUME      L**3       RATES FOR THIS TIME STEP      L**3/T          PACKAGE NAME    
     ------------------                 ------------------------                     ----------------

           IN:                                      IN:
           ---                                      ---
              STO-SS =          28.7060                STO-SS =           0.2153     STORAGE                          
                 WEL =     4941858.9256                   WEL =        7724.0829     WEL                              
                 CHD =           0.0000                   CHD =           0.0000     CHD                              

            TOTAL IN =     4941887.6316              TOTAL IN =        7724.2982

          OUT:                                     OUT:
          ----                                     ----
              STO-SS =         178.0613                STO-SS =           0.0000     STORAGE                          
                 WEL =           0.0000                   WEL =           0.0000     WEL                              
                 CHD =     4941709.5704                   CHD =        7724.2982     CHD                              

           TOTAL OUT =     4941887.6316             TOTAL OUT =        7724.2982

            IN - OUT =      -3.3993E-06              IN - OUT =      -4.0409E-09

 PERCENT DISCREPANCY =          -0.00     PERCENT DISCREPANCY =          -0.00




         TIME SUMMARY AT END OF TIME STEP    5 IN STRESS PERIOD    3
                    SECONDS     MINUTES      HOURS       DAYS        YEARS
                    -----------------------------------------------------------
   TIME STEP LENGTH 5.76000E+06  96000.      1600.0      66.667     0.18252    
 STRESS PERIOD TIME 2.88000E+07 4.80000E+05  8000.0      333.33     0.91262    
         TOTAL TIME 8.06400E+07 1.34400E+06  22400.      933.33      2.5553    


end timestep


start timestep kper="3" kstp="6" mode="normal"

 UBDSV1 SAVING           STO-SS ON UNIT   1021 AT TIME STEP      6, STRESS PERIOD      3
 UBDSV1 SAVING     FLOW-JA-FACE ON UNIT   1021 AT TIME STEP      6, STRESS PERIOD      3
 UBDSV06 SAVING       DATA-SPDIS IN MODEL EX-GWF-FHB       PACKAGE NPF             CONNECTED TO MODEL EX-GWF-FHB       PACKAGE NPF              ON UNIT   1021 AT TIME STEP      6, STRESS PERIOD      3
 UBDSV06 SAVING              WEL IN MODEL EX-GWF-FHB       PACKAGE EX-GWF-FHB      CONNECTED TO MODEL EX-GWF-FHB       PACKAGE WEL              ON UNIT   1021 AT TIME STEP      6, STRESS PERIOD      3
 UBDSV06 SAVING              CHD IN MODEL EX-GWF-FHB       PACKAGE EX-GWF-FHB      CONNECTED TO MODEL EX-GWF-FHB       PACKAGE CHD              ON UNIT   1021 AT TIME STEP      6, STRESS PERIOD      3
1
  HEAD IN LAYER   1 AT END OF TIME STEP   6 IN STRESS PERIOD    3
  ---------------------------------------------------------------------------

                1               2               3               4               5               6               7               8               9              10
 ................................................................................................................................................................
   1      7.24180         6.76703         6.19316         5.59861         4.99975         4.39998         3.80002         3.20002         2.60001         2.00000    
   2      7.71657         6.86612         6.21384         5.60293         5.00065         4.40017         3.80006         3.20003         2.60002         2.00000    
   3      7.24180         6.76703         6.19316         5.59861         4.99975         4.39998         3.80002         3.20002         2.60001         2.00000    

 HEAD WILL BE SAVED ON UNIT 1022 AT END OF TIME STEP    6, STRESS PERIOD    3


  VOLUME BUDGET FOR ENTIRE MODEL AT END OF TIME STEP    6, STRESS PERIOD   3
  ---------------------------------------------------------------------------------------------------

     CUMULATIVE VOLUME      L**3       RATES FOR THIS TIME STEP      L**3/T          PACKAGE NAME    
     ------------------                 ------------------------                     ----------------

           IN:                                      IN:
           ---                                      ---
              STO-SS =          43.0601                STO-SS =           0.2153     STORAGE                          
                 WEL =     5541858.9256                   WEL =        9000.0000     WEL                              
                 CHD =           0.0000                   CHD =           0.0000     CHD                              

            TOTAL IN =     5541901.9857              TOTAL IN =        9000.2153

          OUT:                                     OUT:
          ----                                     ----
              STO-SS =         178.0613                STO-SS =           0.0000     STORAGE                          
                 WEL =           0.0000                   WEL =           0.0000     WEL                              
                 CHD =     5541723.9244                   CHD =        9000.2153     CHD                              

           TOTAL OUT =     5541901.9857             TOTAL OUT =        9000.2153

            IN - OUT =      -3.6694E-06              IN - OUT =      -4.0545E-09

 PERCENT DISCREPANCY =          -0.00     PERCENT DISCREPANCY =          -0.00




         TIME SUMMARY AT END OF TIME STEP    6 IN STRESS PERIOD    3
                    SECONDS     MINUTES      HOURS       DAYS        YEARS
                    -----------------------------------------------------------
   TIME STEP LENGTH 5.76000E+06  96000.      1600.0      66.667     0.18252    
 STRESS PERIOD TIME 3.45600E+07 5.76000E+05  9600.0      400.00      1.0951    
         TOTAL TIME 8.64000E+07 1.44000E+06  24000.      1000.0      2.7379    


end timestep

