                                   MODFLOW 6
                U.S. GEOLOGICAL SURVEY MODULAR HYDROLOGIC MODEL
                          GROUNDWATER FLOW MODEL (GWF)
                            VERSION 6.6.0 12/20/2024

   MODFLOW 6 compiled Dec 31 2024 17:10:16 with Intel(R) Fortran Intel(R) 64
   Compiler Classic for applications running on Intel(R) 64, Version 2021.7.0
                             Build 20220726_000000

This software has been approved for release by the U.S. Geological 
Survey (USGS). Although the software has been subjected to rigorous 
review, the USGS reserves the right to update the software as needed 
pursuant to further analysis and review. No warranty, expressed or 
implied, is made by the USGS or the U.S. Government as to the 
functionality of the software and related material nor shall the 
fact of release constitute any such warranty. Furthermore, the 
software is released on condition that neither the USGS nor the U.S. 
Government shall be held liable for any damages resulting from its 
authorized or unauthorized use. Also refer to the USGS Water 
Resources Software User Rights Notice for complete use, copyright, 
and distribution information.


As a work of the United States Government, this USGS product is 
in the public domain within the United States. You can copy, 
modify, distribute, and perform the work, even for commercial 
purposes, all without asking permission. Additionally, USGS 
waives copyright and related rights in the work worldwide 
through CC0 1.0 Universal Public Domain Dedication 
(https://creativecommons.org/publicdomain/zero/1.0/).

The following GNU Lesser General Public License (LGPL) libraries
are used in this USGS product:

    SPARSKIT version 2.0
      ilut, luson, and qsplit 
      (https://www-users.cse.umn.edu/~saad/software/SPARSKIT/)

    RCM - Reverse Cuthill McKee Ordering
      (https://people.math.sc.edu/Burkardt/f_src/rcm/rcm.html)

    BLAS - Basic Linear Algebra Subprograms Level 1
      (https://people.math.sc.edu/Burkardt/f_src/blas1_d/blas1_d.html)

    SPARSEKIT - Sparse Matrix Utility Package
      amux, dperm, dvperm, rperm, and cperm
      (https://people.sc.fsu.edu/~jburkardt/f77_src/sparsekit/sparsekit.html)

The following BSD-3 License libraries are used in this USGS product:

    Modern Fortran DAG Library
      Copyright (c) 2018, Jacob Williams
      All rights reserved.
      (https://github.com/jacobwilliams/daglib)

MODFLOW 6 compiler options: /O2 /heap-arrays:0 /fpe:0 /traceback /nologo /fpp
/c /module:win64\mod_mf6\ /object:win64\obj_mf6\

System command used to initiate simulation:
C:\Users\gross.DESKTOP-AIRQM2M\anaconda3\Scripts\mf6.exe

MODFLOW was compiled using uniform precision.

Real Variables
  KIND: 8
  TINY (smallest non-zero value):    2.225074-308
  HUGE (largest value):    1.797693+308
  PRECISION: 15
  SIZE IN BITS: 64

Integer Variables
  KIND: 4
  HUGE (largest value): 2147483647
  SIZE IN BITS: 32

Long Integer Variables
  KIND: 8
  HUGE (largest value): 9223372036854775807
  SIZE IN BITS: 64

Logical Variables
  KIND: 4
  SIZE IN BITS: 32
 
 NAMEFILE OPTIONS:
    FLOWS WILL BE SAVED TO BUDGET FILE SPECIFIED IN OUTPUT CONTROL
 END NAMEFILE OPTIONS:

 DIS -- STRUCTURED GRID DISCRETIZATION PACKAGE, VERSION 2 : 3/27/2014 - INPUT READ FROM MEMPATH: __INPUT__/GWF-P04-MF6/DIS                         


 NPF -- NODE PROPERTY FLOW PACKAGE, VERSION 1, 3/30/2015 INPUT READ FROM MEMPATH: __INPUT__/GWF-P04-MF6/NPF                         


 IC -- Initial Conditions Package, Version 8, 3/28/2015 input read from mempath: __INPUT__/GWF-P04-MF6/IC                          


 Setting Discretization Options
    Model length unit [0=UND, 1=FEET, 2=METERS, 3=CENTIMETERS] set as 2
 End Setting Discretization Options

 Setting Discretization Dimensions
    NLAY = 1
    NROW = 100
    NCOL = 100
 End Setting Discretization Dimensions

 Setting Discretization Griddata
    DELR set from input file
    DELC set from input file
    TOP set from input file
    BOTM set from input file
    IDOMAIN set from input file
 End Setting Discretization Griddata

 Setting NPF Options
    Specific discharge will be calculated at cell centers and written to DATA-SPDIS in budget file when requested.
 End Setting NPF Options

 Setting NPF Griddata
    ICELLTYPE set from input file
    K set from input file
    K33 set from input file
    K22 not provided.  Setting K22 = K.
 End Setting NPF Griddata


 WEL   -- WEL PACKAGE, VERSION 8, 2/22/2014 INPUT READ FROM MEMPATH: __INPUT__/GWF-P04-MF6/WEL-1                       

 PROCESSING WEL BASE OPTIONS
    LISTS OF WEL CELLS WILL BE PRINTED.
    WEL FLOWS WILL BE PRINTED TO LISTING FILE.
 END OF WEL BASE OPTIONS

 PROCESSING WEL OPTIONS
 END OF WEL OPTIONS

 PROCESSING WEL BASE DIMENSIONS
    MAXBOUND =       1
 END OF WEL BASE DIMENSIONS

 CHD   -- CHD PACKAGE, VERSION 8, 2/22/2014 INPUT READ FROM MEMPATH: __INPUT__/GWF-P04-MF6/CHD-1                       

 PROCESSING CHD BASE OPTIONS
 END OF CHD BASE OPTIONS

 PROCESSING CHD BASE DIMENSIONS
    MAXBOUND =     396
 END OF CHD BASE DIMENSIONS
    STRT set from input file

 STO -- STORAGE PACKAGE, VERSION 1, 5/19/2014 INPUT READ FROM MEMPATH: __INPUT__/GWF-P04-MF6/STO                         


 PROCESSING STORAGE OPTIONS
 END OF STORAGE OPTIONS
    BINARY GRID INFORMATION WILL BE WRITTEN TO:
      UNIT NUMBER: 1024
      FILE NAME: gwf-p04-mf6.dis.grb

 OPENED gwf-p04-mf6.dis.grb
 FILE TYPE:DATA(BINARY)   UNIT 1024   STATUS:REPLACE             
 FORMAT:UNFORMATTED            ACCESS:STREAM              
 ACTION:READWRITE           

      THE LAST TIME STEP WILL BE PRINTED
      THE LAST TIME STEP WILL BE PRINTED
 # File generated by Flopy version 3.9.1 on 02/19/2025 at 11:03:43.

 PROCESSING OC OPTIONS

    BUDGET INFORMATION WILL BE WRITTEN TO:
      UNIT NUMBER: 1025
      FILE NAME: gwf-p04-mf6.bud

 OPENED gwf-p04-mf6.bud
 FILE TYPE:DATA(BINARY)   UNIT 1025   STATUS:REPLACE             
 FORMAT:UNFORMATTED            ACCESS:STREAM              
 ACTION:READWRITE           

    HEAD INFORMATION WILL BE WRITTEN TO:
      UNIT NUMBER: 1026
      FILE NAME: gwf-p04-mf6.hds

 OPENED gwf-p04-mf6.hds
 FILE TYPE:DATA(BINARY)   UNIT 1026   STATUS:REPLACE             
 FORMAT:UNFORMATTED            ACCESS:STREAM              
 ACTION:READWRITE           

 END OF OC OPTIONS

start timestep kper="1" kstp="1" mode="normal"


 BEGIN READING OUTPUT CONTROL FOR STRESS PERIOD 1
      THE LAST TIME STEP WILL BE SAVED
      THE LAST TIME STEP WILL BE SAVED
      THE LAST TIME STEP WILL BE PRINTED
      THE LAST TIME STEP WILL BE PRINTED

 END READING OUTPUT CONTROL FOR STRESS PERIOD 1
 ---------------------------------------------------
  WEL NO.    LAYER    ROW     COL    CONCENTRATION  
 ---------------------------------------------------
     1         1      80      21     1000.00000     
 ---------------------------------------------------



end timestep


start timestep kper="1" kstp="2" mode="normal"


end timestep


start timestep kper="1" kstp="3" mode="normal"


end timestep


start timestep kper="1" kstp="4" mode="normal"


end timestep


start timestep kper="1" kstp="5" mode="normal"


end timestep


start timestep kper="1" kstp="6" mode="normal"


end timestep


start timestep kper="1" kstp="7" mode="normal"


end timestep


start timestep kper="1" kstp="8" mode="normal"


end timestep


start timestep kper="1" kstp="9" mode="normal"


end timestep


start timestep kper="1" kstp="10" mode="normal"


end timestep


start timestep kper="1" kstp="11" mode="normal"


end timestep


start timestep kper="1" kstp="12" mode="normal"


end timestep


start timestep kper="1" kstp="13" mode="normal"


end timestep


start timestep kper="1" kstp="14" mode="normal"


end timestep


start timestep kper="1" kstp="15" mode="normal"


end timestep


start timestep kper="1" kstp="16" mode="normal"


end timestep


start timestep kper="1" kstp="17" mode="normal"


end timestep


start timestep kper="1" kstp="18" mode="normal"


end timestep


start timestep kper="1" kstp="19" mode="normal"


end timestep


start timestep kper="1" kstp="20" mode="normal"


end timestep


start timestep kper="1" kstp="21" mode="normal"


end timestep


start timestep kper="1" kstp="22" mode="normal"


end timestep


start timestep kper="1" kstp="23" mode="normal"


end timestep


start timestep kper="1" kstp="24" mode="normal"


end timestep


start timestep kper="1" kstp="25" mode="normal"


end timestep


start timestep kper="1" kstp="26" mode="normal"


end timestep


start timestep kper="1" kstp="27" mode="normal"


end timestep


start timestep kper="1" kstp="28" mode="normal"


end timestep


start timestep kper="1" kstp="29" mode="normal"


end timestep


start timestep kper="1" kstp="30" mode="normal"


end timestep


start timestep kper="1" kstp="31" mode="normal"


end timestep


start timestep kper="1" kstp="32" mode="normal"


end timestep


start timestep kper="1" kstp="33" mode="normal"


end timestep


start timestep kper="1" kstp="34" mode="normal"


end timestep


start timestep kper="1" kstp="35" mode="normal"


end timestep


start timestep kper="1" kstp="36" mode="normal"


end timestep


start timestep kper="1" kstp="37" mode="normal"


end timestep


start timestep kper="1" kstp="38" mode="normal"


end timestep


start timestep kper="1" kstp="39" mode="normal"


end timestep


start timestep kper="1" kstp="40" mode="normal"


end timestep


start timestep kper="1" kstp="41" mode="normal"


end timestep


start timestep kper="1" kstp="42" mode="normal"


end timestep


start timestep kper="1" kstp="43" mode="normal"


end timestep


start timestep kper="1" kstp="44" mode="normal"


end timestep


start timestep kper="1" kstp="45" mode="normal"


end timestep


start timestep kper="1" kstp="46" mode="normal"


end timestep


start timestep kper="1" kstp="47" mode="normal"


end timestep


start timestep kper="1" kstp="48" mode="normal"


end timestep


start timestep kper="1" kstp="49" mode="normal"


end timestep


start timestep kper="1" kstp="50" mode="normal"


end timestep


start timestep kper="1" kstp="51" mode="normal"


end timestep


start timestep kper="1" kstp="52" mode="normal"


end timestep


start timestep kper="1" kstp="53" mode="normal"


end timestep


start timestep kper="1" kstp="54" mode="normal"


end timestep


start timestep kper="1" kstp="55" mode="normal"


end timestep


start timestep kper="1" kstp="56" mode="normal"


end timestep


start timestep kper="1" kstp="57" mode="normal"


end timestep


start timestep kper="1" kstp="58" mode="normal"


end timestep


start timestep kper="1" kstp="59" mode="normal"


end timestep


start timestep kper="1" kstp="60" mode="normal"


end timestep


start timestep kper="1" kstp="61" mode="normal"


end timestep


start timestep kper="1" kstp="62" mode="normal"


end timestep


start timestep kper="1" kstp="63" mode="normal"


end timestep


start timestep kper="1" kstp="64" mode="normal"


end timestep


start timestep kper="1" kstp="65" mode="normal"


end timestep


start timestep kper="1" kstp="66" mode="normal"


end timestep


start timestep kper="1" kstp="67" mode="normal"


end timestep


start timestep kper="1" kstp="68" mode="normal"


end timestep


start timestep kper="1" kstp="69" mode="normal"


end timestep


start timestep kper="1" kstp="70" mode="normal"


end timestep


start timestep kper="1" kstp="71" mode="normal"


end timestep


start timestep kper="1" kstp="72" mode="normal"


end timestep


start timestep kper="1" kstp="73" mode="normal"


end timestep


start timestep kper="1" kstp="74" mode="normal"


end timestep


start timestep kper="1" kstp="75" mode="normal"


end timestep


start timestep kper="1" kstp="76" mode="normal"


end timestep


start timestep kper="1" kstp="77" mode="normal"


end timestep


start timestep kper="1" kstp="78" mode="normal"


end timestep


start timestep kper="1" kstp="79" mode="normal"


end timestep


start timestep kper="1" kstp="80" mode="normal"


end timestep


start timestep kper="1" kstp="81" mode="normal"


end timestep


start timestep kper="1" kstp="82" mode="normal"


end timestep


start timestep kper="1" kstp="83" mode="normal"


end timestep


start timestep kper="1" kstp="84" mode="normal"


end timestep


start timestep kper="1" kstp="85" mode="normal"


end timestep


start timestep kper="1" kstp="86" mode="normal"


end timestep


start timestep kper="1" kstp="87" mode="normal"


end timestep


start timestep kper="1" kstp="88" mode="normal"


end timestep


start timestep kper="1" kstp="89" mode="normal"


end timestep


start timestep kper="1" kstp="90" mode="normal"


end timestep


start timestep kper="1" kstp="91" mode="normal"


end timestep


start timestep kper="1" kstp="92" mode="normal"


end timestep


start timestep kper="1" kstp="93" mode="normal"


end timestep


start timestep kper="1" kstp="94" mode="normal"


end timestep


start timestep kper="1" kstp="95" mode="normal"


end timestep


start timestep kper="1" kstp="96" mode="normal"


end timestep


start timestep kper="1" kstp="97" mode="normal"


end timestep


start timestep kper="1" kstp="98" mode="normal"


end timestep


start timestep kper="1" kstp="99" mode="normal"


end timestep


start timestep kper="1" kstp="100" mode="normal"

 UBDSV1 SAVING           STO-SS ON UNIT   1025 AT TIME STEP    100, STRESS PERIOD      1
 UBDSV1 SAVING     FLOW-JA-FACE ON UNIT   1025 AT TIME STEP    100, STRESS PERIOD      1
 UBDSV06 SAVING       DATA-SPDIS IN MODEL GWF-P04-MF6      PACKAGE NPF             CONNECTED TO MODEL GWF-P04-MF6      PACKAGE NPF              ON UNIT   1025 AT TIME STEP    100, STRESS PERIOD      1
 UBDSV06 SAVING              WEL IN MODEL GWF-P04-MF6      PACKAGE GWF-P04-MF6     CONNECTED TO MODEL GWF-P04-MF6      PACKAGE WEL-1            ON UNIT   1025 AT TIME STEP    100, STRESS PERIOD      1
 UBDSV06 SAVING              CHD IN MODEL GWF-P04-MF6      PACKAGE GWF-P04-MF6     CONNECTED TO MODEL GWF-P04-MF6      PACKAGE CHD-1            ON UNIT   1025 AT TIME STEP    100, STRESS PERIOD      1

 WEL PACKAGE (WEL-1) FLOW RATES   PERIOD      1   STEP      100
 -----------------------------------------------
   NUMBER   CELLID                    RATE      
 -----------------------------------------------
     1      (1,80,21)             1.00000000E-02
 -----------------------------------------------



1
  HEAD IN LAYER   1 AT END OF TIME STEP 100 IN STRESS PERIOD    1
  ---------------------------------------------------------------------------

 ........................................................................................................................................................................................................................................................................................................................................................................................................................................................................................................................................................................................................................................................................................................................................................................................................................................................................................................................................................................................................................................
   1      97.1140         96.1241         95.1341         94.1442         93.1542         92.1643         91.1743         90.1844         89.1944         88.2045    
          87.2146         86.2246         85.2347         84.2447         83.2548         82.2648         81.2749         80.2849         79.2950         78.3050    
          77.3151         76.3251         75.3352         74.3452         73.3553         72.3653         71.3754         70.3854         69.3955         68.4055    
          67.4156         66.4256         65.4357         64.4457         63.4558         62.4658         61.4759         60.4859         59.4960         58.5060    
          57.5161         56.5261         55.5362         54.5462         53.5563         52.5663         51.5764         50.5864         49.5965         48.6065    
          47.6166         46.6266         45.6367         44.6467         43.6568         42.6668         41.6769         40.6869         39.6970         38.7070    
          37.7171         36.7271         35.7372         34.7472         33.7573         32.7673         31.7774         30.7874         29.7975         28.8075    
          27.8176         26.8276         25.8377         24.8477         23.8578         22.8678         21.8779         20.8879         19.8980         18.9080    
          17.9181         16.9281         15.9382         14.9482         13.9583         12.9683         11.9784         10.9884         9.99849         9.00854    
          8.01859         7.02864         6.03869         5.04874         4.05879         3.06884         2.07889         1.08894        9.899495E-02   -0.890955    
   2      98.1040         97.1140         96.1241         95.1341         94.1442         93.1542         92.1643         91.1744         90.1844         89.1945    
          88.2045         87.2146         86.2246         85.2347         84.2447         83.2548         82.2648         81.2749         80.2849         79.2950    
          78.3050         77.3151         76.3251         75.3352         74.3452         73.3553         72.3653         71.3754         70.3854         69.3955    
          68.4055         67.4156         66.4256         65.4357         64.4457         63.4558         62.4658         61.4759         60.4859         59.4960    
          58.5060         57.5161         56.5261         55.5362         54.5462         53.5563         52.5663         51.5764         50.5864         49.5965    
          48.6065         47.6166         46.6266         45.6367         44.6467         43.6568         42.6668         41.6769         40.6869         39.6970    
          38.7070         37.7171         36.7271         35.7372         34.7472         33.7573         32.7673         31.7774         30.7874         29.7975    
          28.8075         27.8176         26.8276         25.8377         24.8477         23.8578         22.8678         21.8779         20.8879         19.8980    
          18.9080         17.9181         16.9281         15.9382         14.9482         13.9583         12.9683         11.9784         10.9884         9.99849    
          9.00854         8.01859         7.02864         6.03869         5.04874         4.05879         3.06884         2.07889         1.08894        9.899495E-02
   3      99.0939         98.1040         97.1140         96.1241         95.1341         94.1442         93.1543         92.1643         91.1744         90.1844    
          89.1945         88.2045         87.2146         86.2246         85.2347         84.2447         83.2548         82.2648         81.2749         80.2849    
          79.2950         78.3050         77.3151         76.3251         75.3352         74.3452         73.3553         72.3653         71.3754         70.3854    
          69.3955         68.4055         67.4156         66.4256         65.4357         64.4457         63.4558         62.4658         61.4759         60.4859    
          59.4960         58.5060         57.5161         56.5261         55.5362         54.5462         53.5563         52.5663         51.5764         50.5864    
          49.5965         48.6065         47.6166         46.6266         45.6367         44.6467         43.6568         42.6668         41.6769         40.6869    
          39.6970         38.7070         37.7171         36.7271         35.7372         34.7472         33.7573         32.7673         31.7774         30.7874    
          29.7975         28.8075         27.8176         26.8276         25.8377         24.8477         23.8578         22.8678         21.8779         20.8879    
          19.8980         18.9080         17.9181         16.9281         15.9382         14.9482         13.9583         12.9683         11.9784         10.9884    
          9.99849         9.00854         8.01859         7.02864         6.03869         5.04874         4.05879         3.06884         2.07889         1.08894    
   4      100.084         99.0939         98.1040         97.1140         96.1241         95.1342         94.1442         93.1543         92.1643         91.1744    
          90.1844         89.1945         88.2045         87.2146         86.2246         85.2347         84.2447         83.2548         82.2648         81.2749    
          80.2849         79.2950         78.3050         77.3151         76.3251         75.3352         74.3452         73.3553         72.3653         71.3754    
          70.3854         69.3955         68.4055         67.4156         66.4256         65.4357         64.4457         63.4558         62.4658         61.4759    
          60.4859         59.4960         58.5060         57.5161         56.5261         55.5362         54.5462         53.5563         52.5663         51.5764    
          50.5864         49.5965         48.6065         47.6166         46.6266         45.6367         44.6467         43.6568         42.6668         41.6769    
          40.6869         39.6970         38.7070         37.7171         36.7271         35.7372         34.7472         33.7573         32.7673         31.7774    
          30.7874         29.7975         28.8075         27.8176         26.8276         25.8377         24.8477         23.8578         22.8678         21.8779    
          20.8879         19.8980         18.9080         17.9181         16.9281         15.9382         14.9482         13.9583         12.9683         11.9784    
          10.9884         9.99849         9.00854         8.01859         7.02864         6.03869         5.04874         4.05879         3.06884         2.07889    
   5      101.074         100.084         99.0939         98.1040         97.1141         96.1241         95.1342         94.1442         93.1543         92.1643    
          91.1744         90.1844         89.1945         88.2045         87.2146         86.2246         85.2347         84.2447         83.2548         82.2648    
          81.2749         80.2849         79.2950         78.3050         77.3151         76.3251         75.3352         74.3452         73.3553         72.3653    
          71.3754         70.3854         69.3955         68.4055         67.4156         66.4256         65.4357         64.4457         63.4558         62.4658    
          61.4759         60.4859         59.4960         58.5060         57.5161         56.5261         55.5362         54.5462         53.5563         52.5663    
          51.5764         50.5864         49.5965         48.6065         47.6166         46.6266         45.6367         44.6467         43.6568         42.6668    
          41.6769         40.6869         39.6970         38.7070         37.7171         36.7271         35.7372         34.7472         33.7573         32.7673    
          31.7774         30.7874         29.7975         28.8075         27.8176         26.8276         25.8377         24.8477         23.8578         22.8678    
          21.8779         20.8879         19.8980         18.9080         17.9181         16.9281         15.9382         14.9482         13.9583         12.9683    
          11.9784         10.9884         9.99849         9.00854         8.01859         7.02864         6.03869         5.04874         4.05879         3.06884    
   6      102.064         101.074         100.084         99.0939         98.1040         97.1141         96.1241         95.1342         94.1442         93.1543    
          92.1643         91.1744         90.1844         89.1945         88.2045         87.2146         86.2246         85.2347         84.2447         83.2548    
          82.2648         81.2749         80.2849         79.2950         78.3050         77.3151         76.3251         75.3352         74.3452         73.3553    
          72.3653         71.3754         70.3854         69.3955         68.4055         67.4156         66.4256         65.4357         64.4457         63.4558    
          62.4658         61.4759         60.4860         59.4960         58.5061         57.5161         56.5262         55.5362         54.5463         53.5563    
          52.5664         51.5764         50.5865         49.5965         48.6066         47.6166         46.6267         45.6367         44.6468         43.6568    
          42.6669         41.6769         40.6870         39.6970         38.7071         37.7171         36.7272         35.7372         34.7473         33.7573    
          32.7674         31.7774         30.7875         29.7975         28.8075         27.8176         26.8276         25.8377         24.8477         23.8578    
          22.8678         21.8779         20.8879         19.8980         18.9080         17.9181         16.9281         15.9382         14.9482         13.9583    
          12.9683         11.9784         10.9884         9.99849         9.00854         8.01859         7.02864         6.03869         5.04874         4.05879    
   7      103.054         102.064         101.074         100.084         99.0940         98.1040         97.1141         96.1241         95.1342         94.1442    
          93.1543         92.1643         91.1744         90.1844         89.1945         88.2045         87.2146         86.2246         85.2347         84.2447    
          83.2548         82.2648         81.2749         80.2849         79.2950         78.3050         77.3151         76.3251         75.3352         74.3452    
          73.3553         72.3654         71.3754         70.3855         69.3955         68.4056         67.4156         66.4257         65.4357         64.4458    
          63.4558         62.4659         61.4759         60.4860         59.4960         58.5061         57.5161         56.5262         55.5362         54.5463    
          53.5563         52.5664         51.5764         50.5865         49.5965         48.6066         47.6166         46.6267         45.6367         44.6468    
          43.6568         42.6669         41.6769         40.6870         39.6970         38.7071         37.7171         36.7272         35.7372         34.7473    
          33.7573         32.7674         31.7774         30.7875         29.7975         28.8076         27.8176         26.8277         25.8377         24.8478    
          23.8578         22.8679         21.8779         20.8879         19.8980         18.9080         17.9181         16.9281         15.9382         14.9482    
          13.9583         12.9683         11.9784         10.9884         9.99849         9.00854         8.01859         7.02864         6.03869         5.04874    
   8      104.044         103.054         102.064         101.074         100.084         99.0940         98.1040         97.1141         96.1241         95.1342    
          94.1442         93.1543         92.1643         91.1744         90.1844         89.1945         88.2045         87.2146         86.2246         85.2347    
          84.2447         83.2548         82.2648         81.2749         80.2849         79.2950         78.3051         77.3151         76.3252         75.3352    
          74.3453         73.3553         72.3654         71.3754         70.3855         69.3955         68.4056         67.4156         66.4257         65.4357    
          64.4458         63.4558         62.4659         61.4759         60.4860         59.4960         58.5061         57.5161         56.5262         55.5362    
          54.5463         53.5563         52.5664         51.5764         50.5865         49.5965         48.6066         47.6166         46.6267         45.6367    
          44.6468         43.6568         42.6669         41.6769         40.6870         39.6970         38.7071         37.7171         36.7272         35.7372    
          34.7473         33.7573         32.7674         31.7774         30.7875         29.7975         28.8076         27.8176         26.8277         25.8377    
          24.8478         23.8578         22.8679         21.8779         20.8880         19.8980         18.9080         17.9181         16.9281         15.9382    
          14.9482         13.9583         12.9683         11.9784         10.9884         9.99849         9.00854         8.01859         7.02864         6.03869    
   9      105.034         104.044         103.054         102.064         101.074         100.084         99.0940         98.1040         97.1141         96.1241    
          95.1342         94.1442         93.1543         92.1643         91.1744         90.1844         89.1945         88.2045         87.2146         86.2246    
          85.2347         84.2447         83.2548         82.2649         81.2749         80.2850         79.2950         78.3051         77.3151         76.3252    
          75.3352         74.3453         73.3553         72.3654         71.3754         70.3855         69.3955         68.4056         67.4156         66.4257    
          65.4357         64.4458         63.4558         62.4659         61.4759         60.4860         59.4960         58.5061         57.5161         56.5262    
          55.5362         54.5463         53.5563         52.5664         51.5764         50.5865         49.5965         48.6066         47.6166         46.6267    
          45.6367         44.6468         43.6568         42.6669         41.6769         40.6870         39.6970         38.7071         37.7171         36.7272    
          35.7372         34.7473         33.7573         32.7674         31.7774         30.7875         29.7975         28.8076         27.8176         26.8277    
          25.8377         24.8478         23.8578         22.8679         21.8779         20.8880         19.8980         18.9081         17.9181         16.9281    
          15.9382         14.9482         13.9583         12.9683         11.9784         10.9884         9.99849         9.00854         8.01859         7.02864    
  10      106.024         105.034         104.044         103.054         102.064         101.074         100.084         99.0940         98.1040         97.1141    
          96.1241         95.1342         94.1442         93.1543         92.1643         91.1744         90.1844         89.1945         88.2045         87.2146    
          86.2247         85.2347         84.2448         83.2548         82.2649         81.2749         80.2850         79.2950         78.3051         77.3151    
          76.3252         75.3352         74.3453         73.3553         72.3654         71.3754         70.3855         69.3955         68.4056         67.4156    
          66.4257         65.4357         64.4458         63.4558         62.4659         61.4759         60.4860         59.4960         58.5061         57.5161    
          56.5262         55.5362         54.5463         53.5563         52.5664         51.5764         50.5865         49.5965         48.6066         47.6166    
          46.6267         45.6367         44.6468         43.6568         42.6669         41.6769         40.6870         39.6970         38.7071         37.7171    
          36.7272         35.7372         34.7473         33.7573         32.7674         31.7774         30.7875         29.7975         28.8076         27.8176    
          26.8277         25.8377         24.8478         23.8578         22.8679         21.8779         20.8880         19.8980         18.9081         17.9181    
          16.9281         15.9382         14.9482         13.9583         12.9683         11.9784         10.9884         9.99849         9.00854         8.01859    
  11      107.014         106.024         105.034         104.044         103.054         102.064         101.074         100.084         99.0940         98.1040    
          97.1141         96.1241         95.1342         94.1442         93.1543         92.1643         91.1744         90.1844         89.1945         88.2046    
          87.2146         86.2247         85.2347         84.2448         83.2548         82.2649         81.2749         80.2850         79.2950         78.3051    
          77.3151         76.3252         75.3352         74.3453         73.3553         72.3654         71.3754         70.3855         69.3955         68.4056    
          67.4156         66.4257         65.4357         64.4458         63.4558         62.4659         61.4759         60.4860         59.4960         58.5061    
          57.5161         56.5262         55.5362         54.5463         53.5563         52.5664         51.5764         50.5865         49.5965         48.6066    
          47.6166         46.6267         45.6367         44.6468         43.6568         42.6669         41.6769         40.6870         39.6970         38.7071    
          37.7171         36.7272         35.7372         34.7473         33.7573         32.7674         31.7774         30.7875         29.7975         28.8076    
          27.8176         26.8277         25.8377         24.8478         23.8578         22.8679         21.8779         20.8880         19.8980         18.9081    
          17.9181         16.9281         15.9382         14.9482         13.9583         12.9683         11.9784         10.9884         9.99849         9.00854    
  12      108.003         107.014         106.024         105.034         104.044         103.054         102.064         101.074         100.084         99.0940    
          98.1040         97.1141         96.1241         95.1342         94.1442         93.1543         92.1643         91.1744         90.1845         89.1945    
          88.2046         87.2146         86.2247         85.2347         84.2448         83.2548         82.2649         81.2749         80.2850         79.2950    
          78.3051         77.3151         76.3252         75.3352         74.3453         73.3553         72.3654         71.3754         70.3855         69.3955    
          68.4056         67.4156         66.4257         65.4357         64.4458         63.4558         62.4659         61.4759         60.4860         59.4960    
          58.5061         57.5161         56.5262         55.5362         54.5463         53.5563         52.5664         51.5764         50.5865         49.5965    
          48.6066         47.6166         46.6267         45.6367         44.6468         43.6568         42.6669         41.6769         40.6870         39.6970    
          38.7071         37.7171         36.7272         35.7372         34.7473         33.7573         32.7674         31.7774         30.7875         29.7975    
          28.8076         27.8176         26.8277         25.8377         24.8478         23.8578         22.8679         21.8779         20.8880         19.8980    
          18.9081         17.9181         16.9281         15.9382         14.9482         13.9583         12.9683         11.9784         10.9884         9.99849    
  13      108.993         108.003         107.014         106.024         105.034         104.044         103.054         102.064         101.074         100.084    
          99.0940         98.1040         97.1141         96.1241         95.1342         94.1443         93.1543         92.1644         91.1744         90.1845    
          89.1945         88.2046         87.2146         86.2247         85.2347         84.2448         83.2548         82.2649         81.2749         80.2850    
          79.2950         78.3051         77.3151         76.3252         75.3352         74.3453         73.3553         72.3654         71.3754         70.3855    
          69.3955         68.4056         67.4157         66.4257         65.4358         64.4458         63.4559         62.4659         61.4759         60.4860    
          59.4960         58.5061         57.5161         56.5262         55.5362         54.5463         53.5563         52.5664         51.5764         50.5865    
          49.5965         48.6066         47.6166         46.6267         45.6367         44.6468         43.6568         42.6669         41.6769         40.6870    
          39.6970         38.7071         37.7171         36.7272         35.7372         34.7473         33.7573         32.7674         31.7774         30.7875    
          29.7975         28.8076         27.8176         26.8277         25.8377         24.8478         23.8578         22.8679         21.8779         20.8880    
          19.8980         18.9081         17.9181         16.9281         15.9382         14.9482         13.9583         12.9683         11.9784         10.9884    
  14      109.983         108.993         108.003         107.014         106.024         105.034         104.044         103.054         102.064         101.074    
          100.084         99.0940         98.1040         97.1141         96.1242         95.1342         94.1443         93.1543         92.1644         91.1744    
          90.1845         89.1945         88.2046         87.2146         86.2247         85.2347         84.2448         83.2548         82.2649         81.2749    
          80.2850         79.2950         78.3051         77.3152         76.3252         75.3353         74.3453         73.3554         72.3654         71.3755    
          70.3855         69.3956         68.4056         67.4157         66.4257         65.4358         64.4458         63.4559         62.4659         61.4760    
          60.4860         59.4961         58.5061         57.5162         56.5262         55.5363         54.5463         53.5563         52.5664         51.5764    
          50.5865         49.5965         48.6066         47.6166         46.6267         45.6367         44.6468         43.6568         42.6669         41.6769    
          40.6870         39.6970         38.7071         37.7171         36.7272         35.7372         34.7473         33.7573         32.7674         31.7774    
          30.7875         29.7975         28.8076         27.8176         26.8277         25.8377         24.8478         23.8578         22.8679         21.8779    
          20.8880         19.8980         18.9080         17.9181         16.9281         15.9382         14.9482         13.9583         12.9683         11.9784    
  15      110.973         109.983         108.993         108.004         107.014         106.024         105.034         104.044         103.054         102.064    
          101.074         100.084         99.0940         98.1041         97.1141         96.1242         95.1342         94.1443         93.1543         92.1644    
          91.1744         90.1845         89.1945         88.2046         87.2146         86.2247         85.2347         84.2448         83.2549         82.2649    
          81.2750         80.2850         79.2951         78.3051         77.3152         76.3252         75.3353         74.3453         73.3554         72.3654    
          71.3755         70.3855         69.3956         68.4056         67.4157         66.4257         65.4358         64.4458         63.4559         62.4659    
          61.4760         60.4860         59.4961         58.5061         57.5162         56.5262         55.5363         54.5463         53.5564         52.5664    
          51.5765         50.5865         49.5965         48.6066         47.6166         46.6267         45.6367         44.6468         43.6568         42.6669    
          41.6769         40.6870         39.6970         38.7071         37.7171         36.7272         35.7372         34.7473         33.7573         32.7674    
          31.7774         30.7875         29.7975         28.8076         27.8176         26.8277         25.8377         24.8478         23.8578         22.8679    
          21.8779         20.8880         19.8980         18.9080         17.9181         16.9281         15.9382         14.9482         13.9583         12.9683    
  16      111.963         110.973         109.983         108.993         108.004         107.014         106.024         105.034         104.044         103.054    
          102.064         101.074         100.084         99.0940         98.1041         97.1141         96.1242         95.1342         94.1443         93.1543    
          92.1644         91.1744         90.1845         89.1945         88.2046         87.2147         86.2247         85.2348         84.2448         83.2549    
          82.2649         81.2750         80.2850         79.2951         78.3051         77.3152         76.3252         75.3353         74.3453         73.3554    
          72.3654         71.3755         70.3855         69.3956         68.4056         67.4157         66.4257         65.4358         64.4458         63.4559    
          62.4659         61.4760         60.4860         59.4961         58.5061         57.5162         56.5262         55.5363         54.5463         53.5564    
          52.5664         51.5765         50.5865         49.5966         48.6066         47.6167         46.6267         45.6367         44.6468         43.6568    
          42.6669         41.6769         40.6870         39.6970         38.7071         37.7171         36.7272         35.7372         34.7473         33.7573    
          32.7674         31.7774         30.7875         29.7975         28.8076         27.8176         26.8277         25.8377         24.8478         23.8578    
          22.8679         21.8779         20.8880         19.8980         18.9080         17.9181         16.9281         15.9382         14.9482         13.9583    
  17      112.953         111.963         110.973         109.983         108.993         108.004         107.014         106.024         105.034         104.044    
          103.054         102.064         101.074         100.084         99.0940         98.1041         97.1141         96.1242         95.1342         94.1443    
          93.1543         92.1644         91.1744         90.1845         89.1946         88.2046         87.2147         86.2247         85.2348         84.2448    
          83.2549         82.2649         81.2750         80.2850         79.2951         78.3051         77.3152         76.3252         75.3353         74.3453    
          73.3554         72.3654         71.3755         70.3855         69.3956         68.4056         67.4157         66.4257         65.4358         64.4458    
          63.4559         62.4659         61.4760         60.4860         59.4961         58.5061         57.5162         56.5262         55.5363         54.5463    
          53.5564         52.5664         51.5765         50.5865         49.5966         48.6066         47.6167         46.6267         45.6367         44.6468    
          43.6568         42.6669         41.6769         40.6870         39.6970         38.7071         37.7171         36.7272         35.7372         34.7473    
          33.7573         32.7674         31.7774         30.7875         29.7975         28.8076         27.8176         26.8277         25.8377         24.8478    
          23.8578         22.8679         21.8779         20.8879         19.8980         18.9080         17.9181         16.9281         15.9382         14.9482    
  18      113.943         112.953         111.963         110.973         109.983         108.993         108.004         107.014         106.024         105.034    
          104.044         103.054         102.064         101.074         100.084         99.0940         98.1041         97.1141         96.1242         95.1342    
          94.1443         93.1544         92.1644         91.1745         90.1845         89.1946         88.2046         87.2147         86.2247         85.2348    
          84.2448         83.2549         82.2649         81.2750         80.2850         79.2951         78.3051         77.3152         76.3252         75.3353    
          74.3453         73.3554         72.3654         71.3755         70.3855         69.3956         68.4056         67.4157         66.4257         65.4358    
          64.4458         63.4559         62.4659         61.4760         60.4860         59.4961         58.5061         57.5162         56.5262         55.5363    
          54.5463         53.5564         52.5664         51.5765         50.5865         49.5966         48.6066         47.6167         46.6267         45.6368    
          44.6468         43.6568         42.6669         41.6769         40.6870         39.6970         38.7071         37.7171         36.7272         35.7372    
          34.7473         33.7573         32.7674         31.7774         30.7875         29.7975         28.8076         27.8176         26.8277         25.8377    
          24.8478         23.8578         22.8679         21.8779         20.8879         19.8980         18.9080         17.9181         16.9281         15.9382    
  19      114.933         113.943         112.953         111.963         110.973         109.983         108.993         108.004         107.014         106.024    
          105.034         104.044         103.054         102.064         101.074         100.084         99.0940         98.1041         97.1141         96.1242    
          95.1343         94.1443         93.1544         92.1644         91.1745         90.1845         89.1946         88.2046         87.2147         86.2247    
          85.2348         84.2448         83.2549         82.2649         81.2750         80.2850         79.2951         78.3051         77.3152         76.3252    
          75.3353         74.3453         73.3554         72.3654         71.3755         70.3855         69.3956         68.4056         67.4157         66.4257    
          65.4358         64.4458         63.4559         62.4659         61.4760         60.4860         59.4961         58.5061         57.5162         56.5262    
          55.5363         54.5463         53.5564         52.5664         51.5765         50.5865         49.5966         48.6066         47.6167         46.6267    
          45.6368         44.6468         43.6568         42.6669         41.6769         40.6870         39.6970         38.7071         37.7171         36.7272    
          35.7372         34.7473         33.7573         32.7674         31.7774         30.7875         29.7975         28.8076         27.8176         26.8277    
          25.8377         24.8478         23.8578         22.8679         21.8779         20.8879         19.8980         18.9080         17.9181         16.9281    
  20      115.923         114.933         113.943         112.953         111.963         110.973         109.983         108.993         108.004         107.014    
          106.024         105.034         104.044         103.054         102.064         101.074         100.084         99.0940         98.1041         97.1142    
          96.1242         95.1343         94.1443         93.1544         92.1644         91.1745         90.1845         89.1946         88.2046         87.2147    
          86.2247         85.2348         84.2448         83.2549         82.2650         81.2750         80.2851         79.2951         78.3052         77.3152    
          76.3253         75.3353         74.3454         73.3554         72.3655         71.3755         70.3856         69.3956         68.4057         67.4157    
          66.4257         65.4358         64.4458         63.4559         62.4659         61.4760         60.4860         59.4961         58.5061         57.5162    
          56.5262         55.5363         54.5463         53.5564         52.5664         51.5765         50.5865         49.5966         48.6066         47.6167    
          46.6267         45.6368         44.6468         43.6569         42.6669         41.6769         40.6870         39.6970         38.7071         37.7171    
          36.7272         35.7372         34.7473         33.7573         32.7674         31.7774         30.7875         29.7975         28.8076         27.8176    
          26.8277         25.8377         24.8478         23.8578         22.8678         21.8779         20.8879         19.8980         18.9080         17.9181    
  21      116.913         115.923         114.933         113.943         112.953         111.963         110.973         109.983         108.993         108.004    
          107.014         106.024         105.034         104.044         103.054         102.064         101.074         100.084         99.0941         98.1041    
          97.1142         96.1242         95.1343         94.1443         93.1544         92.1644         91.1745         90.1845         89.1946         88.2047    
          87.2147         86.2248         85.2348         84.2449         83.2549         82.2650         81.2750         80.2851         79.2951         78.3052    
          77.3152         76.3253         75.3353         74.3454         73.3554         72.3655         71.3755         70.3856         69.3956         68.4057    
          67.4157         66.4258         65.4358         64.4459         63.4559         62.4659         61.4760         60.4860         59.4961         58.5061    
          57.5162         56.5262         55.5363         54.5463         53.5564         52.5664         51.5765         50.5865         49.5966         48.6066    
          47.6167         46.6267         45.6368         44.6468         43.6569         42.6669         41.6769         40.6870         39.6970         38.7071    
          37.7171         36.7272         35.7372         34.7473         33.7573         32.7674         31.7774         30.7875         29.7975         28.8076    
          27.8176         26.8277         25.8377         24.8478         23.8578         22.8678         21.8779         20.8879         19.8980         18.9080    
  22      117.903         116.913         115.923         114.933         113.943         112.953         111.963         110.973         109.983         108.994    
          108.004         107.014         106.024         105.034         104.044         103.054         102.064         101.074         100.084         99.0941    
          98.1041         97.1142         96.1242         95.1343         94.1443         93.1544         92.1644         91.1745         90.1846         89.1946    
          88.2047         87.2147         86.2248         85.2348         84.2449         83.2549         82.2650         81.2750         80.2851         79.2951    
          78.3052         77.3152         76.3253         75.3353         74.3454         73.3554         72.3655         71.3755         70.3856         69.3956    
          68.4057         67.4157         66.4258         65.4358         64.4459         63.4559         62.4660         61.4760         60.4860         59.4961    
          58.5061         57.5162         56.5262         55.5363         54.5463         53.5564         52.5664         51.5765         50.5865         49.5966    
          48.6066         47.6167         46.6267         45.6368         44.6468         43.6569         42.6669         41.6769         40.6870         39.6970    
          38.7071         37.7171         36.7272         35.7372         34.7473         33.7573         32.7674         31.7774         30.7875         29.7975    
          28.8076         27.8176         26.8277         25.8377         24.8477         23.8578         22.8678         21.8779         20.8879         19.8980    
  23      118.893         117.903         116.913         115.923         114.933         113.943         112.953         111.963         110.973         109.983    
          108.994         108.004         107.014         106.024         105.034         104.044         103.054         102.064         101.074         100.084    
          99.0941         98.1041         97.1142         96.1242         95.1343         94.1444         93.1544         92.1645         91.1745         90.1846    
          89.1946         88.2047         87.2147         86.2248         85.2348         84.2449         83.2549         82.2650         81.2750         80.2851    
          79.2951         78.3052         77.3152         76.3253         75.3353         74.3454         73.3554         72.3655         71.3755         70.3856    
          69.3956         68.4057         67.4157         66.4258         65.4358         64.4459         63.4559         62.4660         61.4760         60.4861    
          59.4961         58.5061         57.5162         56.5262         55.5363         54.5463         53.5564         52.5664         51.5765         50.5865    
          49.5966         48.6066         47.6167         46.6267         45.6368         44.6468         43.6569         42.6669         41.6769         40.6870    
          39.6970         38.7071         37.7171         36.7272         35.7372         34.7473         33.7573         32.7674         31.7774         30.7875    
          29.7975         28.8076         27.8176         26.8277         25.8377         24.8477         23.8578         22.8678         21.8779         20.8879    
  24      119.883         118.893         117.903         116.913         115.923         114.933         113.943         112.953         111.963         110.973    
          109.983         108.994         108.004         107.014         106.024         105.034         104.044         103.054         102.064         101.074    
          100.084         99.0941         98.1041         97.1142         96.1243         95.1343         94.1444         93.1544         92.1645         91.1745    
          90.1846         89.1946         88.2047         87.2147         86.2248         85.2348         84.2449         83.2549         82.2650         81.2750    
          80.2851         79.2951         78.3052         77.3152         76.3253         75.3353         74.3454         73.3554         72.3655         71.3755    
          70.3856         69.3956         68.4057         67.4157         66.4258         65.4358         64.4459         63.4559         62.4660         61.4760    
          60.4861         59.4961         58.5061         57.5162         56.5262         55.5363         54.5463         53.5564         52.5664         51.5765    
          50.5865         49.5966         48.6066         47.6167         46.6267         45.6368         44.6468         43.6569         42.6669         41.6769    
          40.6870         39.6970         38.7071         37.7171         36.7272         35.7372         34.7473         33.7573         32.7674         31.7774    
          30.7875         29.7975         28.8076         27.8176         26.8276         25.8377         24.8477         23.8578         22.8678         21.8779    
  25      120.873         119.883         118.893         117.903         116.913         115.923         114.933         113.943         112.953         111.963    
          110.973         109.983         108.994         108.004         107.014         106.024         105.034         104.044         103.054         102.064    
          101.074         100.084         99.0941         98.1042         97.1142         96.1243         95.1343         94.1444         93.1544         92.1645    
          91.1745         90.1846         89.1946         88.2047         87.2147         86.2248         85.2348         84.2449         83.2550         82.2650    
          81.2751         80.2851         79.2951         78.3052         77.3152         76.3253         75.3353         74.3454         73.3554         72.3655    
          71.3755         70.3856         69.3956         68.4057         67.4157         66.4258         65.4358         64.4459         63.4559         62.4660    
          61.4760         60.4861         59.4961         58.5062         57.5162         56.5262         55.5363         54.5463         53.5564         52.5664    
          51.5765         50.5865         49.5966         48.6066         47.6167         46.6267         45.6368         44.6468         43.6569         42.6669    
          41.6769         40.6870         39.6970         38.7071         37.7171         36.7272         35.7372         34.7473         33.7573         32.7674    
          31.7774         30.7875         29.7975         28.8076         27.8176         26.8276         25.8377         24.8477         23.8578         22.8678    
  26      121.863         120.873         119.883         118.893         117.903         116.913         115.923         114.933         113.943         112.953    
          111.963         110.973         109.983         108.994         108.004         107.014         106.024         105.034         104.044         103.054    
          102.064         101.074         100.084         99.0941         98.1042         97.1142         96.1243         95.1343         94.1444         93.1544    
          92.1645         91.1746         90.1846         89.1947         88.2047         87.2148         86.2248         85.2349         84.2449         83.2550    
          82.2650         81.2751         80.2851         79.2952         78.3052         77.3153         76.3253         75.3354         74.3454         73.3554    
          72.3655         71.3755         70.3856         69.3956         68.4057         67.4157         66.4258         65.4358         64.4459         63.4559    
          62.4660         61.4760         60.4861         59.4961         58.5062         57.5162         56.5262         55.5363         54.5463         53.5564    
          52.5664         51.5765         50.5865         49.5966         48.6066         47.6167         46.6267         45.6368         44.6468         43.6569    
          42.6669         41.6769         40.6870         39.6970         38.7071         37.7171         36.7272         35.7372         34.7473         33.7573    
          32.7674         31.7774         30.7875         29.7975         28.8075         27.8176         26.8276         25.8377         24.8477         23.8578    
  27      122.853         121.863         120.873         119.883         118.893         117.903         116.913         115.923         114.933         113.943    
          112.953         111.963         110.973         109.984         108.994         108.004         107.014         106.024         105.034         104.044    
          103.054         102.064         101.074         100.084         99.0941         98.1042         97.1142         96.1243         95.1344         94.1444    
          93.1545         92.1645         91.1746         90.1846         89.1947         88.2047         87.2148         86.2248         85.2349         84.2449    
          83.2550         82.2650         81.2751         80.2851         79.2952         78.3052         77.3153         76.3253         75.3354         74.3454    
          73.3555         72.3655         71.3755         70.3856         69.3956         68.4057         67.4157         66.4258         65.4358         64.4459    
          63.4559         62.4660         61.4760         60.4861         59.4961         58.5062         57.5162         56.5262         55.5363         54.5463    
          53.5564         52.5664         51.5765         50.5865         49.5966         48.6066         47.6167         46.6267         45.6368         44.6468    
          43.6569         42.6669         41.6769         40.6870         39.6970         38.7071         37.7171         36.7272         35.7372         34.7473    
          33.7573         32.7674         31.7774         30.7875         29.7975         28.8075         27.8176         26.8276         25.8377         24.8477    
  28      123.843         122.853         121.863         120.873         119.883         118.893         117.903         116.913         115.923         114.933    
          113.943         112.953         111.963         110.973         109.984         108.994         108.004         107.014         106.024         105.034    
          104.044         103.054         102.064         101.074         100.084         99.0942         98.1042         97.1143         96.1243         95.1344    
          94.1444         93.1545         92.1645         91.1746         90.1846         89.1947         88.2047         87.2148         86.2248         85.2349    
          84.2449         83.2550         82.2650         81.2751         80.2851         79.2952         78.3052         77.3153         76.3253         75.3354    
          74.3454         73.3555         72.3655         71.3756         70.3856         69.3956         68.4057         67.4157         66.4258         65.4358    
          64.4459         63.4559         62.4660         61.4760         60.4861         59.4961         58.5062         57.5162         56.5262         55.5363    
          54.5463         53.5564         52.5664         51.5765         50.5865         49.5966         48.6066         47.6167         46.6267         45.6368    
          44.6468         43.6568         42.6669         41.6769         40.6870         39.6970         38.7071         37.7171         36.7272         35.7372    
          34.7473         33.7573         32.7674         31.7774         30.7875         29.7975         28.8075         27.8176         26.8276         25.8377    
  29      124.833         123.843         122.853         121.863         120.873         119.883         118.893         117.903         116.913         115.923    
          114.933         113.943         112.953         111.963         110.973         109.984         108.994         108.004         107.014         106.024    
          105.034         104.044         103.054         102.064         101.074         100.084         99.0942         98.1042         97.1143         96.1243    
          95.1344         94.1444         93.1545         92.1645         91.1746         90.1846         89.1947         88.2047         87.2148         86.2248    
          85.2349         84.2449         83.2550         82.2650         81.2751         80.2851         79.2952         78.3052         77.3153         76.3253    
          75.3354         74.3454         73.3555         72.3655         71.3756         70.3856         69.3957         68.4057         67.4157         66.4258    
          65.4358         64.4459         63.4559         62.4660         61.4760         60.4861         59.4961         58.5062         57.5162         56.5263    
          55.5363         54.5463         53.5564         52.5664         51.5765         50.5865         49.5966         48.6066         47.6167         46.6267    
          45.6368         44.6468         43.6568         42.6669         41.6769         40.6870         39.6970         38.7071         37.7171         36.7272    
          35.7372         34.7473         33.7573         32.7674         31.7774         30.7874         29.7975         28.8075         27.8176         26.8276    
  30      125.823         124.833         123.843         122.853         121.863         120.873         119.883         118.893         117.903         116.913    
          115.923         114.933         113.943         112.953         111.963         110.974         109.984         108.994         108.004         107.014    
          106.024         105.034         104.044         103.054         102.064         101.074         100.084         99.0942         98.1042         97.1143    
          96.1243         95.1344         94.1444         93.1545         92.1646         91.1746         90.1847         89.1947         88.2048         87.2148    
          86.2249         85.2349         84.2449         83.2550         82.2650         81.2751         80.2851         79.2952         78.3052         77.3153    
          76.3253         75.3354         74.3454         73.3555         72.3655         71.3756         70.3856         69.3957         68.4057         67.4157    
          66.4258         65.4358         64.4459         63.4559         62.4660         61.4760         60.4861         59.4961         58.5062         57.5162    
          56.5263         55.5363         54.5463         53.5564         52.5664         51.5765         50.5865         49.5966         48.6066         47.6167    
          46.6267         45.6368         44.6468         43.6568         42.6669         41.6769         40.6870         39.6970         38.7071         37.7171    
          36.7272         35.7372         34.7473         33.7573         32.7674         31.7774         30.7874         29.7975         28.8075         27.8176    
  31      126.813         125.823         124.833         123.843         122.853         121.863         120.873         119.883         118.893         117.903    
          116.913         115.923         114.933         113.943         112.953         111.963         110.974         109.984         108.994         108.004    
          107.014         106.024         105.034         104.044         103.054         102.064         101.074         100.084         99.0942         98.1043    
          97.1143         96.1244         95.1344         94.1445         93.1545         92.1646         91.1746         90.1847         89.1947         88.2048    
          87.2148         86.2249         85.2349         84.2450         83.2550         82.2651         81.2751         80.2851         79.2952         78.3052    
          77.3153         76.3253         75.3354         74.3454         73.3555         72.3655         71.3756         70.3856         69.3957         68.4057    
          67.4157         66.4258         65.4358         64.4459         63.4559         62.4660         61.4760         60.4861         59.4961         58.5062    
          57.5162         56.5263         55.5363         54.5463         53.5564         52.5664         51.5765         50.5865         49.5966         48.6066    
          47.6167         46.6267         45.6368         44.6468         43.6568         42.6669         41.6769         40.6870         39.6970         38.7071    
          37.7171         36.7272         35.7372         34.7473         33.7573         32.7673         31.7774         30.7874         29.7975         28.8075    
  32      127.802         126.813         125.823         124.833         123.843         122.853         121.863         120.873         119.883         118.893    
          117.903         116.913         115.923         114.933         113.943         112.953         111.963         110.974         109.984         108.994    
          108.004         107.014         106.024         105.034         104.044         103.054         102.064         101.074         100.084         99.0942    
          98.1043         97.1143         96.1244         95.1344         94.1445         93.1545         92.1646         91.1746         90.1847         89.1947    
          88.2048         87.2148         86.2249         85.2349         84.2450         83.2550         82.2651         81.2751         80.2852         79.2952    
          78.3052         77.3153         76.3253         75.3354         74.3454         73.3555         72.3655         71.3756         70.3856         69.3957    
          68.4057         67.4158         66.4258         65.4358         64.4459         63.4559         62.4660         61.4760         60.4861         59.4961    
          58.5062         57.5162         56.5262         55.5363         54.5463         53.5564         52.5664         51.5765         50.5865         49.5966    
          48.6066         47.6167         46.6267         45.6367         44.6468         43.6568         42.6669         41.6769         40.6870         39.6970    
          38.7071         37.7171         36.7272         35.7372         34.7473         33.7573         32.7673         31.7774         30.7874         29.7975    
  33      128.792         127.802         126.813         125.823         124.833         123.843         122.853         121.863         120.873         119.883    
          118.893         117.903         116.913         115.923         114.933         113.943         112.953         111.963         110.974         109.984    
          108.994         108.004         107.014         106.024         105.034         104.044         103.054         102.064         101.074         100.084    
          99.0942         98.1043         97.1143         96.1244         95.1344         94.1445         93.1545         92.1646         91.1746         90.1847    
          89.1947         88.2048         87.2148         86.2249         85.2349         84.2450         83.2550         82.2651         81.2751         80.2852    
          79.2952         78.3053         77.3153         76.3253         75.3354         74.3454         73.3555         72.3655         71.3756         70.3856    
          69.3957         68.4057         67.4158         66.4258         65.4358         64.4459         63.4559         62.4660         61.4760         60.4861    
          59.4961         58.5062         57.5162         56.5262         55.5363         54.5463         53.5564         52.5664         51.5765         50.5865    
          49.5966         48.6066         47.6167         46.6267         45.6367         44.6468         43.6568         42.6669         41.6769         40.6870    
          39.6970         38.7071         37.7171         36.7272         35.7372         34.7472         33.7573         32.7673         31.7774         30.7874    
  34      129.782         128.792         127.803         126.813         125.823         124.833         123.843         122.853         121.863         120.873    
          119.883         118.893         117.903         116.913         115.923         114.933         113.943         112.953         111.964         110.974    
          109.984         108.994         108.004         107.014         106.024         105.034         104.044         103.054         102.064         101.074    
          100.084         99.0942         98.1043         97.1143         96.1244         95.1345         94.1445         93.1545         92.1646         91.1746    
          90.1847         89.1947         88.2048         87.2148         86.2249         85.2349         84.2450         83.2550         82.2651         81.2751    
          80.2852         79.2952         78.3053         77.3153         76.3253         75.3354         74.3454         73.3555         72.3655         71.3756    
          70.3856         69.3957         68.4057         67.4158         66.4258         65.4358         64.4459         63.4559         62.4660         61.4760    
          60.4861         59.4961         58.5062         57.5162         56.5262         55.5363         54.5463         53.5564         52.5664         51.5765    
          50.5865         49.5966         48.6066         47.6167         46.6267         45.6367         44.6468         43.6568         42.6669         41.6769    
          40.6870         39.6970         38.7071         37.7171         36.7272         35.7372         34.7472         33.7573         32.7673         31.7774    
  35      130.772         129.782         128.792         127.803         126.813         125.823         124.833         123.843         122.853         121.863    
          120.873         119.883         118.893         117.903         116.913         115.923         114.933         113.943         112.953         111.964    
          110.974         109.984         108.994         108.004         107.014         106.024         105.034         104.044         103.054         102.064    
          101.074         100.084         99.0943         98.1043         97.1144         96.1244         95.1345         94.1445         93.1546         92.1646    
          91.1747         90.1847         89.1948         88.2048         87.2148         86.2249         85.2349         84.2450         83.2550         82.2651    
          81.2751         80.2852         79.2952         78.3053         77.3153         76.3254         75.3354         74.3454         73.3555         72.3655    
          71.3756         70.3856         69.3957         68.4057         67.4158         66.4258         65.4358         64.4459         63.4559         62.4660    
          61.4760         60.4861         59.4961         58.5062         57.5162         56.5262         55.5363         54.5463         53.5564         52.5664    
          51.5765         50.5865         49.5966         48.6066         47.6167         46.6267         45.6367         44.6468         43.6568         42.6669    
          41.6769         40.6870         39.6970         38.7071         37.7171         36.7271         35.7372         34.7472         33.7573         32.7673    
  36      131.762         130.772         129.782         128.792         127.803         126.813         125.823         124.833         123.843         122.853    
          121.863         120.873         119.883         118.893         117.903         116.913         115.923         114.933         113.943         112.954    
          111.964         110.974         109.984         108.994         108.004         107.014         106.024         105.034         104.044         103.054    
          102.064         101.074         100.084         99.0943         98.1043         97.1144         96.1244         95.1345         94.1445         93.1546    
          92.1646         91.1747         90.1847         89.1948         88.2048         87.2149         86.2249         85.2349         84.2450         83.2550    
          82.2651         81.2751         80.2852         79.2952         78.3053         77.3153         76.3254         75.3354         74.3454         73.3555    
          72.3655         71.3756         70.3856         69.3957         68.4057         67.4158         66.4258         65.4358         64.4459         63.4559    
          62.4660         61.4760         60.4861         59.4961         58.5062         57.5162         56.5262         55.5363         54.5463         53.5564    
          52.5664         51.5765         50.5865         49.5966         48.6066         47.6166         46.6267         45.6367         44.6468         43.6568    
          42.6669         41.6769         40.6870         39.6970         38.7071         37.7171         36.7271         35.7372         34.7472         33.7573    
  37      132.752         131.762         130.772         129.782         128.792         127.803         126.813         125.823         124.833         123.843    
          122.853         121.863         120.873         119.883         118.893         117.903         116.913         115.923         114.933         113.943    
          112.954         111.964         110.974         109.984         108.994         108.004         107.014         106.024         105.034         104.044    
          103.054         102.064         101.074         100.084         99.0943         98.1043         97.1144         96.1244         95.1345         94.1445    
          93.1546         92.1646         91.1747         90.1847         89.1948         88.2048         87.2149         86.2249         85.2350         84.2450    
          83.2550         82.2651         81.2751         80.2852         79.2952         78.3053         77.3153         76.3254         75.3354         74.3454    
          73.3555         72.3655         71.3756         70.3856         69.3957         68.4057         67.4158         66.4258         65.4358         64.4459    
          63.4559         62.4660         61.4760         60.4861         59.4961         58.5062         57.5162         56.5262         55.5363         54.5463    
          53.5564         52.5664         51.5765         50.5865         49.5966         48.6066         47.6166         46.6267         45.6367         44.6468    
          43.6568         42.6669         41.6769         40.6870         39.6970         38.7070         37.7171         36.7271         35.7372         34.7472    
  38      133.742         132.752         131.762         130.772         129.782         128.793         127.803         126.813         125.823         124.833    
          123.843         122.853         121.863         120.873         119.883         118.893         117.903         116.913         115.923         114.933    
          113.943         112.954         111.964         110.974         109.984         108.994         108.004         107.014         106.024         105.034    
          104.044         103.054         102.064         101.074         100.084         99.0943         98.1044         97.1144         96.1245         95.1345    
          94.1445         93.1546         92.1646         91.1747         90.1847         89.1948         88.2048         87.2149         86.2249         85.2350    
          84.2450         83.2550         82.2651         81.2751         80.2852         79.2952         78.3053         77.3153         76.3254         75.3354    
          74.3454         73.3555         72.3655         71.3756         70.3856         69.3957         68.4057         67.4158         66.4258         65.4358    
          64.4459         63.4559         62.4660         61.4760         60.4861         59.4961         58.5061         57.5162         56.5262         55.5363    
          54.5463         53.5564         52.5664         51.5765         50.5865         49.5965         48.6066         47.6166         46.6267         45.6367    
          44.6468         43.6568         42.6669         41.6769         40.6870         39.6970         38.7070         37.7171         36.7271         35.7372    
  39      134.732         133.742         132.752         131.762         130.772         129.782         128.793         127.803         126.813         125.823    
          124.833         123.843         122.853         121.863         120.873         119.883         118.893         117.903         116.913         115.923    
          114.933         113.944         112.954         111.964         110.974         109.984         108.994         108.004         107.014         106.024    
          105.034         104.044         103.054         102.064         101.074         100.084         99.0943         98.1044         97.1144         96.1245    
          95.1345         94.1446         93.1546         92.1647         91.1747         90.1847         89.1948         88.2048         87.2149         86.2249    
          85.2350         84.2450         83.2551         82.2651         81.2751         80.2852         79.2952         78.3053         77.3153         76.3254    
          75.3354         74.3454         73.3555         72.3655         71.3756         70.3856         69.3957         68.4057         67.4158         66.4258    
[...]
          155.522         154.532         153.542         152.552         151.562         150.572         149.582         148.592         147.602         146.612    
          145.622         144.632         143.642         142.652         141.662         140.672         139.682         138.692         137.702         136.712    
          135.722         134.732         133.742         132.753         131.763         130.773         129.783         128.793         127.803         126.813    
          125.823         124.833         123.843         122.853         121.863         120.873         119.883         118.893         117.903         116.913    
          115.923         114.933         113.943         112.953         111.963         110.973         109.983         108.994         108.004         107.014    
          106.024         105.034         104.044         103.054         102.064         101.074         100.084         99.0940         98.1040         97.1141    
          96.1241         95.1342         94.1442         93.1543         92.1643         91.1744         90.1844         89.1945         88.2045         87.2146    
  91      186.209         185.220         184.230         183.240         182.250         181.260         180.270         179.280         178.290         177.301    
          176.311         175.321         174.331         173.341         172.351         171.361         170.371         169.382         168.392         167.402    
          166.412         165.422         164.432         163.442         162.452         161.462         160.472         159.482         158.492         157.502    
          156.512         155.522         154.532         153.542         152.552         151.562         150.572         149.582         148.592         147.602    
          146.612         145.622         144.632         143.642         142.652         141.662         140.672         139.682         138.692         137.702    
          136.712         135.722         134.732         133.742         132.752         131.763         130.773         129.783         128.793         127.803    
          126.813         125.823         124.833         123.843         122.853         121.863         120.873         119.883         118.893         117.903    
          116.913         115.923         114.933         113.943         112.953         111.963         110.973         109.983         108.994         108.004    
          107.014         106.024         105.034         104.044         103.054         102.064         101.074         100.084         99.0940         98.1040    
          97.1141         96.1241         95.1342         94.1442         93.1543         92.1643         91.1744         90.1844         89.1945         88.2045    
  92      187.199         186.210         185.220         184.230         183.240         182.250         181.260         180.270         179.280         178.290    
          177.301         176.311         175.321         174.331         173.341         172.351         171.361         170.371         169.381         168.391    
          167.402         166.412         165.422         164.432         163.442         162.452         161.462         160.472         159.482         158.492    
          157.502         156.512         155.522         154.532         153.542         152.552         151.562         150.572         149.582         148.592    
          147.602         146.612         145.622         144.632         143.642         142.652         141.662         140.672         139.682         138.692    
          137.702         136.712         135.722         134.732         133.742         132.752         131.762         130.773         129.783         128.793    
          127.803         126.813         125.823         124.833         123.843         122.853         121.863         120.873         119.883         118.893    
          117.903         116.913         115.923         114.933         113.943         112.953         111.963         110.973         109.983         108.993    
          108.004         107.014         106.024         105.034         104.044         103.054         102.064         101.074         100.084         99.0940    
          98.1040         97.1141         96.1241         95.1342         94.1442         93.1543         92.1643         91.1744         90.1844         89.1944    
  93      188.189         187.200         186.210         185.220         184.230         183.240         182.250         181.260         180.270         179.280    
          178.290         177.301         176.311         175.321         174.331         173.341         172.351         171.361         170.371         169.381    
          168.391         167.401         166.411         165.421         164.432         163.442         162.452         161.462         160.472         159.482    
          158.492         157.502         156.512         155.522         154.532         153.542         152.552         151.562         150.572         149.582    
          148.592         147.602         146.612         145.622         144.632         143.642         142.652         141.662         140.672         139.682    
          138.692         137.702         136.712         135.722         134.732         133.742         132.752         131.762         130.772         129.783    
          128.793         127.803         126.813         125.823         124.833         123.843         122.853         121.863         120.873         119.883    
          118.893         117.903         116.913         115.923         114.933         113.943         112.953         111.963         110.973         109.983    
          108.993         108.004         107.014         106.024         105.034         104.044         103.054         102.064         101.074         100.084    
          99.0940         98.1040         97.1141         96.1241         95.1342         94.1442         93.1543         92.1643         91.1744         90.1844    
  94      189.179         188.189         187.200         186.210         185.220         184.230         183.240         182.250         181.260         180.270    
          179.280         178.290         177.301         176.311         175.321         174.331         173.341         172.351         171.361         170.371    
          169.381         168.391         167.401         166.411         165.421         164.431         163.441         162.451         161.461         160.471    
          159.481         158.492         157.502         156.512         155.522         154.532         153.542         152.552         151.562         150.572    
          149.582         148.592         147.602         146.612         145.622         144.632         143.642         142.652         141.662         140.672    
          139.682         138.692         137.702         136.712         135.722         134.732         133.742         132.752         131.762         130.772    
          129.782         128.793         127.803         126.813         125.823         124.833         123.843         122.853         121.863         120.873    
          119.883         118.893         117.903         116.913         115.923         114.933         113.943         112.953         111.963         110.973    
          109.983         108.993         108.004         107.014         106.024         105.034         104.044         103.054         102.064         101.074    
          100.084         99.0940         98.1040         97.1141         96.1241         95.1342         94.1442         93.1543         92.1643         91.1743    
  95      190.169         189.179         188.189         187.200         186.210         185.220         184.230         183.240         182.250         181.260    
          180.270         179.280         178.290         177.300         176.311         175.321         174.331         173.341         172.351         171.361    
          170.371         169.381         168.391         167.401         166.411         165.421         164.431         163.441         162.451         161.461    
          160.471         159.481         158.491         157.501         156.511         155.521         154.532         153.542         152.552         151.562    
          150.572         149.582         148.592         147.602         146.612         145.622         144.632         143.642         142.652         141.662    
          140.672         139.682         138.692         137.702         136.712         135.722         134.732         133.742         132.752         131.762    
          130.772         129.782         128.793         127.803         126.813         125.823         124.833         123.843         122.853         121.863    
          120.873         119.883         118.893         117.903         116.913         115.923         114.933         113.943         112.953         111.963    
          110.973         109.983         108.993         108.004         107.014         106.024         105.034         104.044         103.054         102.064    
          101.074         100.084         99.0940         98.1040         97.1141         96.1241         95.1342         94.1442         93.1542         92.1643    
  96      191.159         190.169         189.179         188.189         187.200         186.210         185.220         184.230         183.240         182.250    
          181.260         180.270         179.280         178.290         177.300         176.310         175.321         174.331         173.341         172.351    
          171.361         170.371         169.381         168.391         167.401         166.411         165.421         164.431         163.441         162.451    
          161.461         160.471         159.481         158.491         157.501         156.511         155.521         154.531         153.541         152.551    
          151.562         150.572         149.582         148.592         147.602         146.612         145.622         144.632         143.642         142.652    
          141.662         140.672         139.682         138.692         137.702         136.712         135.722         134.732         133.742         132.752    
          131.762         130.772         129.782         128.792         127.803         126.813         125.823         124.833         123.843         122.853    
          121.863         120.873         119.883         118.893         117.903         116.913         115.923         114.933         113.943         112.953    
          111.963         110.973         109.983         108.993         108.004         107.014         106.024         105.034         104.044         103.054    
          102.064         101.074         100.084         99.0940         98.1040         97.1141         96.1241         95.1341         94.1442         93.1542    
  97      192.149         191.159         190.169         189.179         188.189         187.200         186.210         185.220         184.230         183.240    
          182.250         181.260         180.270         179.280         178.290         177.300         176.310         175.320         174.330         173.341    
          172.351         171.361         170.371         169.381         168.391         167.401         166.411         165.421         164.431         163.441    
          162.451         161.461         160.471         159.481         158.491         157.501         156.511         155.521         154.531         153.541    
          152.551         151.561         150.571         149.582         148.592         147.602         146.612         145.622         144.632         143.642    
          142.652         141.662         140.672         139.682         138.692         137.702         136.712         135.722         134.732         133.742    
          132.752         131.762         130.772         129.782         128.792         127.803         126.813         125.823         124.833         123.843    
          122.853         121.863         120.873         119.883         118.893         117.903         116.913         115.923         114.933         113.943    
          112.953         111.963         110.973         109.983         108.993         108.004         107.014         106.024         105.034         104.044    
          103.054         102.064         101.074         100.084         99.0939         98.1040         97.1140         96.1241         95.1341         94.1442    
  98      193.139         192.149         191.159         190.169         189.179         188.189         187.200         186.210         185.220         184.230    
          183.240         182.250         181.260         180.270         179.280         178.290         177.300         176.310         175.320         174.330    
          173.340         172.350         171.361         170.371         169.381         168.391         167.401         166.411         165.421         164.431    
          163.441         162.451         161.461         160.471         159.481         158.491         157.501         156.511         155.521         154.531    
          153.541         152.551         151.561         150.571         149.581         148.592         147.602         146.612         145.622         144.632    
          143.642         142.652         141.662         140.672         139.682         138.692         137.702         136.712         135.722         134.732    
          133.742         132.752         131.762         130.772         129.782         128.792         127.803         126.813         125.823         124.833    
          123.843         122.853         121.863         120.873         119.883         118.893         117.903         116.913         115.923         114.933    
          113.943         112.953         111.963         110.973         109.983         108.993         108.003         107.014         106.024         105.034    
          104.044         103.054         102.064         101.074         100.084         99.0939         98.1040         97.1140         96.1241         95.1341    
  99      194.129         193.139         192.149         191.159         190.169         189.179         188.189         187.200         186.210         185.220    
          184.230         183.240         182.250         181.260         180.270         179.280         178.290         177.300         176.310         175.320    
          174.330         173.340         172.350         171.360         170.370         169.380         168.391         167.401         166.411         165.421    
          164.431         163.441         162.451         161.461         160.471         159.481         158.491         157.501         156.511         155.521    
          154.531         153.541         152.551         151.561         150.571         149.581         148.591         147.602         146.612         145.622    
          144.632         143.642         142.652         141.662         140.672         139.682         138.692         137.702         136.712         135.722    
          134.732         133.742         132.752         131.762         130.772         129.782         128.792         127.802         126.813         125.823    
          124.833         123.843         122.853         121.863         120.873         119.883         118.893         117.903         116.913         115.923    
          114.933         113.943         112.953         111.963         110.973         109.983         108.993         108.003         107.014         106.024    
          105.034         104.044         103.054         102.064         101.074         100.084         99.0939         98.1040         97.1140         96.1241    
 100      195.119         194.129         193.139         192.149         191.159         190.169         189.179         188.189         187.199         186.209    
          185.220         184.230         183.240         182.250         181.260         180.270         179.280         178.290         177.300         176.310    
          175.320         174.330         173.340         172.350         171.360         170.370         169.380         168.390         167.400         166.411    
          165.421         164.431         163.441         162.451         161.461         160.471         159.481         158.491         157.501         156.511    
          155.521         154.531         153.541         152.551         151.561         150.571         149.581         148.591         147.601         146.612    
          145.622         144.632         143.642         142.652         141.662         140.672         139.682         138.692         137.702         136.712    
          135.722         134.732         133.742         132.752         131.762         130.772         129.782         128.792         127.802         126.813    
          125.823         124.833         123.843         122.853         121.863         120.873         119.883         118.893         117.903         116.913    
          115.923         114.933         113.943         112.953         111.963         110.973         109.983         108.993         108.003         107.014    
          106.024         105.034         104.044         103.054         102.064         101.074         100.084         99.0939         98.1040         97.1140    

 HEAD WILL BE SAVED ON UNIT 1026 AT END OF TIME STEP  100, STRESS PERIOD    1


  VOLUME BUDGET FOR ENTIRE MODEL AT END OF TIME STEP  100, STRESS PERIOD   1
  ---------------------------------------------------------------------------------------------------

     CUMULATIVE VOLUME      L**3       RATES FOR THIS TIME STEP      L**3/T          PACKAGE NAME    
     ------------------                 ------------------------                     ----------------

           IN:                                      IN:
           ---                                      ---
              STO-SS =           0.0000                STO-SS =           0.0000     STORAGE                          
                 WEL =          10.0000                   WEL =       1.0000E-02     WEL-1                            
                 CHD =      194020.9921                   CHD =         194.0210     CHD-1                            

            TOTAL IN =      194030.9921              TOTAL IN =         194.0310

          OUT:                                     OUT:
          ----                                     ----
              STO-SS =           0.0000                STO-SS =           0.0000     STORAGE                          
                 WEL =           0.0000                   WEL =           0.0000     WEL-1                            
                 CHD =      194030.9916                   CHD =         194.0310     CHD-1                            

           TOTAL OUT =      194030.9916             TOTAL OUT =         194.0310

            IN - OUT =       4.8625E-04              IN - OUT =       7.9238E-09

 PERCENT DISCREPANCY =           0.00     PERCENT DISCREPANCY =           0.00




         TIME SUMMARY AT END OF TIME STEP  100 IN STRESS PERIOD    1
                    SECONDS     MINUTES      HOURS       DAYS        YEARS
                    -----------------------------------------------------------
   TIME STEP LENGTH 8.64000E+05  14400.      240.00      10.000     2.73785E-02
 STRESS PERIOD TIME 8.64000E+07 1.44000E+06  24000.      1000.0      2.7379    
         TOTAL TIME 8.64000E+07 1.44000E+06  24000.      1000.0      2.7379    


end timestep

