                                   MODFLOW 6
                U.S. GEOLOGICAL SURVEY MODULAR HYDROLOGIC MODEL
                             TRANSPORT MODEL (GWT)
                            VERSION 6.6.1 02/10/2025

   MODFLOW 6 compiled Feb 14 2025 13:40:10 with Intel(R) Fortran Intel(R) 64
   Compiler Classic for applications running on Intel(R) 64, Version 2021.7.0
                             Build 20220726_000000

This software has been approved for release by the U.S. Geological 
Survey (USGS). Although the software has been subjected to rigorous 
review, the USGS reserves the right to update the software as needed 
pursuant to further analysis and review. No warranty, expressed or 
implied, is made by the USGS or the U.S. Government as to the 
functionality of the software and related material nor shall the 
fact of release constitute any such warranty. Furthermore, the 
software is released on condition that neither the USGS nor the U.S. 
Government shall be held liable for any damages resulting from its 
authorized or unauthorized use. Also refer to the USGS Water 
Resources Software User Rights Notice for complete use, copyright, 
and distribution information.


As a work of the United States Government, this USGS product is 
in the public domain within the United States. You can copy, 
modify, distribute, and perform the work, even for commercial 
purposes, all without asking permission. Additionally, USGS 
waives copyright and related rights in the work worldwide 
through CC0 1.0 Universal Public Domain Dedication 
(https://creativecommons.org/publicdomain/zero/1.0/).

The following GNU Lesser General Public License (LGPL) libraries
are used in this USGS product:

    SPARSKIT version 2.0
      ilut, luson, and qsplit 
      (https://www-users.cse.umn.edu/~saad/software/SPARSKIT/)

    RCM - Reverse Cuthill McKee Ordering
      (https://people.math.sc.edu/Burkardt/f_src/rcm/rcm.html)

    BLAS - Basic Linear Algebra Subprograms Level 1
      (https://people.math.sc.edu/Burkardt/f_src/blas1_d/blas1_d.html)

    SPARSEKIT - Sparse Matrix Utility Package
      amux, dperm, dvperm, rperm, and cperm
      (https://people.sc.fsu.edu/~jburkardt/f77_src/sparsekit/sparsekit.html)

The following BSD-3 License libraries are used in this USGS product:

    Modern Fortran DAG Library
      Copyright (c) 2018, Jacob Williams
      All rights reserved.
      (https://github.com/jacobwilliams/daglib)

MODFLOW 6 compiler options: /O2 /heap-arrays:0 /fpe:0 /traceback /nologo /fpp
/c /module:win64\mod_mf6\ /object:win64\obj_mf6\

System command used to initiate simulation:
C:\Users\gross.DESKTOP-AIRQM2M\anaconda3\Scripts\mf6.exe

MODFLOW was compiled using uniform precision.

Real Variables
  KIND: 8
  TINY (smallest non-zero value):    2.225074-308
  HUGE (largest value):    1.797693+308
  PRECISION: 15
  SIZE IN BITS: 64

Integer Variables
  KIND: 4
  HUGE (largest value): 2147483647
  SIZE IN BITS: 32

Long Integer Variables
  KIND: 8
  HUGE (largest value): 9223372036854775807
  SIZE IN BITS: 64

Logical Variables
  KIND: 4
  SIZE IN BITS: 32
 
 NAMEFILE OPTIONS:
    FLOWS WILL BE SAVED TO BUDGET FILE SPECIFIED IN OUTPUT CONTROL
 END NAMEFILE OPTIONS:

 DIS -- STRUCTURED GRID DISCRETIZATION PACKAGE, VERSION 2 : 3/27/2014 - INPUT READ FROM MEMPATH: __INPUT__/GWT_P06-MF6/DIS                         


 DSP-- DISPERSION PACKAGE, VERSION 1, 1/24/2018 INPUT READ FROM MEMPATH: __INPUT__/GWT_P06-MF6/DSP                         


 Setting Discretization Options
 End Setting Discretization Options

 Setting Discretization Dimensions
    NLAY = 1
    NROW = 31
    NCOL = 31
 End Setting Discretization Dimensions

 Setting Discretization Griddata
    DELR set from input file
    DELC set from input file
    TOP set from input file
    BOTM set from input file
    IDOMAIN set from input file
 End Setting Discretization Griddata


 FMI -- FLOW MODEL INTERFACE,' VERSION 2, 8/17/2023
  FLOWS PROVIDED BY A GWF MODEL IN THIS SIMULATION

 ADV-- ADVECTION PACKAGE, VERSION 1, 8/25/2017 INPUT READ FROM UNIT 1015


 # File generated by Flopy version 3.9.1 on 03/12/2025 at 10:55:08.
 PROCESSING ADVECTION OPTIONS
    ADVECTION WEIGHTING SCHEME HAS BEEN SET TO: TVD
 END OF ADVECTION OPTIONS
 Setting DSP Options
    XT3D formulation [0=INACTIVE, 1=ACTIVE, 3=ACTIVE RHS] set to: 0
 End Setting DSP Options

 Setting DSP Griddata
    ALH set from input file
    ATH1 set from input file
 End Setting DSP Griddata

    STRT set from input file

 MST -- MOBILE STORAGE AND TRANSFER PACKAGE, VERSION 1, 7/29/2020 INPUT READ FROM UNIT 1014


 # File generated by Flopy version 3.9.1 on 03/12/2025 at 10:55:08.
 PROCESSING MOBILE STORAGE AND TRANSFER OPTIONS
 END OF MOBILE STORAGE AND TRANSFER OPTIONS
 PROCESSING GRIDDATA

   MOBILE DOMAIN POROSITY =  0.3500000    
 END PROCESSING GRIDDATA

 SSM -- SOURCE-SINK MIXING PACKAGE, VERSION 1, 8/25/2017 INPUT READ FROM UNIT 1017


 # File generated by Flopy version 3.9.1 on 03/12/2025 at 10:55:08.
 PROCESSING SSM OPTIONS
 END OF SSM OPTIONS
 PROCESSING SOURCES
 AUX SOURCE DETECTED.
    USING AUX COLUMN 1 IN PACKAGE WEL-1
 END PROCESSING SOURCES
 OPTIONAL FILEINPUT BLOCK NOT FOUND.  CONTINUING.

The observation utility is active for "GWT_P06-MF6"
 # File generated by Flopy version 3.9.1 on 03/12/2025 at 10:55:08.

Processing observation options:


      THE LAST TIME STEP WILL BE PRINTED
      THE LAST TIME STEP WILL BE PRINTED
 # File generated by Flopy version 3.9.1 on 03/12/2025 at 10:55:08.

 PROCESSING OC OPTIONS

    BUDGET INFORMATION WILL BE WRITTEN TO:
      UNIT NUMBER: 1029
      FILE NAME: gwt_p06-mf6.cbc

 OPENED gwt_p06-mf6.cbc
 FILE TYPE:DATA(BINARY)   UNIT 1029   STATUS:REPLACE             
 FORMAT:UNFORMATTED            ACCESS:STREAM              
 ACTION:READWRITE           

    CONCENTRATION INFORMATION WILL BE WRITTEN TO:
      UNIT NUMBER: 1030
      FILE NAME: gwt_p06-mf6.ucn

 OPENED gwt_p06-mf6.ucn
 FILE TYPE:DATA(BINARY)   UNIT 1030   STATUS:REPLACE             
 FORMAT:UNFORMATTED            ACCESS:STREAM              
 ACTION:READWRITE           

 END OF OC OPTIONS

start timestep kper="1" kstp="1" mode="normal"


 BEGIN READING OUTPUT CONTROL FOR STRESS PERIOD 1
      THE LAST TIME STEP WILL BE SAVED
      THE LAST TIME STEP WILL BE SAVED
      THE LAST TIME STEP WILL BE PRINTED
      THE LAST TIME STEP WILL BE PRINTED

 END READING OUTPUT CONTROL FOR STRESS PERIOD 1

end timestep


start timestep kper="1" kstp="2" mode="normal"


end timestep


start timestep kper="1" kstp="3" mode="normal"


end timestep


start timestep kper="1" kstp="4" mode="normal"


end timestep


start timestep kper="1" kstp="5" mode="normal"


end timestep


start timestep kper="1" kstp="6" mode="normal"


end timestep


start timestep kper="1" kstp="7" mode="normal"


end timestep


start timestep kper="1" kstp="8" mode="normal"


end timestep


start timestep kper="1" kstp="9" mode="normal"


end timestep


start timestep kper="1" kstp="10" mode="normal"


end timestep


start timestep kper="1" kstp="11" mode="normal"


end timestep


start timestep kper="1" kstp="12" mode="normal"


end timestep


start timestep kper="1" kstp="13" mode="normal"


end timestep


start timestep kper="1" kstp="14" mode="normal"


end timestep


start timestep kper="1" kstp="15" mode="normal"


end timestep


start timestep kper="1" kstp="16" mode="normal"


end timestep


start timestep kper="1" kstp="17" mode="normal"


end timestep


start timestep kper="1" kstp="18" mode="normal"


end timestep


start timestep kper="1" kstp="19" mode="normal"


end timestep


start timestep kper="1" kstp="20" mode="normal"


end timestep


start timestep kper="1" kstp="21" mode="normal"


end timestep


start timestep kper="1" kstp="22" mode="normal"


end timestep


start timestep kper="1" kstp="23" mode="normal"


end timestep


start timestep kper="1" kstp="24" mode="normal"


end timestep


start timestep kper="1" kstp="25" mode="normal"


end timestep


start timestep kper="1" kstp="26" mode="normal"


end timestep


start timestep kper="1" kstp="27" mode="normal"


end timestep


start timestep kper="1" kstp="28" mode="normal"


end timestep


start timestep kper="1" kstp="29" mode="normal"


end timestep


start timestep kper="1" kstp="30" mode="normal"


end timestep


start timestep kper="1" kstp="31" mode="normal"


end timestep


start timestep kper="1" kstp="32" mode="normal"


end timestep


start timestep kper="1" kstp="33" mode="normal"


end timestep


start timestep kper="1" kstp="34" mode="normal"


end timestep


start timestep kper="1" kstp="35" mode="normal"


end timestep


start timestep kper="1" kstp="36" mode="normal"


end timestep


start timestep kper="1" kstp="37" mode="normal"


end timestep


start timestep kper="1" kstp="38" mode="normal"


end timestep


start timestep kper="1" kstp="39" mode="normal"


end timestep


start timestep kper="1" kstp="40" mode="normal"


end timestep


start timestep kper="1" kstp="41" mode="normal"


end timestep


start timestep kper="1" kstp="42" mode="normal"


end timestep


start timestep kper="1" kstp="43" mode="normal"


end timestep


start timestep kper="1" kstp="44" mode="normal"


end timestep


start timestep kper="1" kstp="45" mode="normal"


end timestep


start timestep kper="1" kstp="46" mode="normal"


end timestep


start timestep kper="1" kstp="47" mode="normal"


end timestep


start timestep kper="1" kstp="48" mode="normal"


end timestep


start timestep kper="1" kstp="49" mode="normal"


end timestep


start timestep kper="1" kstp="50" mode="normal"


end timestep


start timestep kper="1" kstp="51" mode="normal"


end timestep


start timestep kper="1" kstp="52" mode="normal"


end timestep


start timestep kper="1" kstp="53" mode="normal"


end timestep


start timestep kper="1" kstp="54" mode="normal"


end timestep


start timestep kper="1" kstp="55" mode="normal"


end timestep


start timestep kper="1" kstp="56" mode="normal"


end timestep


start timestep kper="1" kstp="57" mode="normal"


end timestep


start timestep kper="1" kstp="58" mode="normal"


end timestep


start timestep kper="1" kstp="59" mode="normal"


end timestep


start timestep kper="1" kstp="60" mode="normal"


end timestep


start timestep kper="1" kstp="61" mode="normal"


end timestep


start timestep kper="1" kstp="62" mode="normal"


end timestep


start timestep kper="1" kstp="63" mode="normal"


end timestep


start timestep kper="1" kstp="64" mode="normal"


end timestep


start timestep kper="1" kstp="65" mode="normal"


end timestep


start timestep kper="1" kstp="66" mode="normal"


end timestep


start timestep kper="1" kstp="67" mode="normal"


end timestep


start timestep kper="1" kstp="68" mode="normal"


end timestep


start timestep kper="1" kstp="69" mode="normal"


end timestep


start timestep kper="1" kstp="70" mode="normal"


end timestep


start timestep kper="1" kstp="71" mode="normal"


end timestep


start timestep kper="1" kstp="72" mode="normal"


end timestep


start timestep kper="1" kstp="73" mode="normal"


end timestep


start timestep kper="1" kstp="74" mode="normal"


end timestep


start timestep kper="1" kstp="75" mode="normal"


end timestep


start timestep kper="1" kstp="76" mode="normal"


end timestep


start timestep kper="1" kstp="77" mode="normal"


end timestep


start timestep kper="1" kstp="78" mode="normal"


end timestep


start timestep kper="1" kstp="79" mode="normal"


end timestep


start timestep kper="1" kstp="80" mode="normal"


end timestep


start timestep kper="1" kstp="81" mode="normal"


end timestep


start timestep kper="1" kstp="82" mode="normal"


end timestep


start timestep kper="1" kstp="83" mode="normal"


end timestep


start timestep kper="1" kstp="84" mode="normal"


end timestep


start timestep kper="1" kstp="85" mode="normal"


end timestep


start timestep kper="1" kstp="86" mode="normal"


end timestep


start timestep kper="1" kstp="87" mode="normal"


end timestep


start timestep kper="1" kstp="88" mode="normal"


end timestep


start timestep kper="1" kstp="89" mode="normal"


end timestep


start timestep kper="1" kstp="90" mode="normal"


end timestep


start timestep kper="1" kstp="91" mode="normal"


end timestep


start timestep kper="1" kstp="92" mode="normal"


end timestep


start timestep kper="1" kstp="93" mode="normal"


end timestep


start timestep kper="1" kstp="94" mode="normal"


end timestep


start timestep kper="1" kstp="95" mode="normal"


end timestep


start timestep kper="1" kstp="96" mode="normal"


end timestep


start timestep kper="1" kstp="97" mode="normal"


end timestep


start timestep kper="1" kstp="98" mode="normal"


end timestep


start timestep kper="1" kstp="99" mode="normal"


end timestep


start timestep kper="1" kstp="100" mode="normal"


end timestep


start timestep kper="1" kstp="101" mode="normal"


end timestep


start timestep kper="1" kstp="102" mode="normal"


end timestep


start timestep kper="1" kstp="103" mode="normal"


end timestep


start timestep kper="1" kstp="104" mode="normal"


end timestep


start timestep kper="1" kstp="105" mode="normal"


end timestep


start timestep kper="1" kstp="106" mode="normal"


end timestep


start timestep kper="1" kstp="107" mode="normal"


end timestep


start timestep kper="1" kstp="108" mode="normal"


end timestep


start timestep kper="1" kstp="109" mode="normal"


end timestep


start timestep kper="1" kstp="110" mode="normal"


end timestep


start timestep kper="1" kstp="111" mode="normal"


end timestep


start timestep kper="1" kstp="112" mode="normal"


end timestep


start timestep kper="1" kstp="113" mode="normal"


end timestep


start timestep kper="1" kstp="114" mode="normal"


end timestep


start timestep kper="1" kstp="115" mode="normal"


end timestep


start timestep kper="1" kstp="116" mode="normal"


end timestep


start timestep kper="1" kstp="117" mode="normal"


end timestep


start timestep kper="1" kstp="118" mode="normal"


end timestep


start timestep kper="1" kstp="119" mode="normal"


end timestep


start timestep kper="1" kstp="120" mode="normal"


end timestep


start timestep kper="1" kstp="121" mode="normal"


end timestep


start timestep kper="1" kstp="122" mode="normal"


end timestep


start timestep kper="1" kstp="123" mode="normal"


end timestep


start timestep kper="1" kstp="124" mode="normal"


end timestep


start timestep kper="1" kstp="125" mode="normal"


end timestep


start timestep kper="1" kstp="126" mode="normal"


end timestep


start timestep kper="1" kstp="127" mode="normal"


end timestep


start timestep kper="1" kstp="128" mode="normal"


end timestep


start timestep kper="1" kstp="129" mode="normal"


end timestep


start timestep kper="1" kstp="130" mode="normal"


end timestep


start timestep kper="1" kstp="131" mode="normal"


end timestep


start timestep kper="1" kstp="132" mode="normal"


end timestep


start timestep kper="1" kstp="133" mode="normal"


end timestep


start timestep kper="1" kstp="134" mode="normal"


end timestep


start timestep kper="1" kstp="135" mode="normal"


end timestep


start timestep kper="1" kstp="136" mode="normal"


end timestep


start timestep kper="1" kstp="137" mode="normal"


end timestep


start timestep kper="1" kstp="138" mode="normal"


end timestep


start timestep kper="1" kstp="139" mode="normal"


end timestep


start timestep kper="1" kstp="140" mode="normal"


end timestep


start timestep kper="1" kstp="141" mode="normal"


end timestep


start timestep kper="1" kstp="142" mode="normal"


end timestep


start timestep kper="1" kstp="143" mode="normal"


end timestep


start timestep kper="1" kstp="144" mode="normal"


end timestep


start timestep kper="1" kstp="145" mode="normal"


end timestep


start timestep kper="1" kstp="146" mode="normal"


end timestep


start timestep kper="1" kstp="147" mode="normal"


end timestep


start timestep kper="1" kstp="148" mode="normal"


end timestep


start timestep kper="1" kstp="149" mode="normal"


end timestep


start timestep kper="1" kstp="150" mode="normal"


end timestep


start timestep kper="1" kstp="151" mode="normal"


end timestep


start timestep kper="1" kstp="152" mode="normal"


end timestep


start timestep kper="1" kstp="153" mode="normal"


end timestep


start timestep kper="1" kstp="154" mode="normal"


end timestep


start timestep kper="1" kstp="155" mode="normal"


end timestep


start timestep kper="1" kstp="156" mode="normal"


end timestep


start timestep kper="1" kstp="157" mode="normal"


end timestep


start timestep kper="1" kstp="158" mode="normal"


end timestep


start timestep kper="1" kstp="159" mode="normal"


end timestep


start timestep kper="1" kstp="160" mode="normal"


end timestep


start timestep kper="1" kstp="161" mode="normal"


end timestep


start timestep kper="1" kstp="162" mode="normal"


end timestep


start timestep kper="1" kstp="163" mode="normal"


end timestep


start timestep kper="1" kstp="164" mode="normal"


end timestep


start timestep kper="1" kstp="165" mode="normal"


end timestep


start timestep kper="1" kstp="166" mode="normal"


end timestep


start timestep kper="1" kstp="167" mode="normal"


end timestep


start timestep kper="1" kstp="168" mode="normal"


end timestep


start timestep kper="1" kstp="169" mode="normal"


end timestep


start timestep kper="1" kstp="170" mode="normal"


end timestep


start timestep kper="1" kstp="171" mode="normal"


end timestep


start timestep kper="1" kstp="172" mode="normal"


end timestep


start timestep kper="1" kstp="173" mode="normal"


end timestep


start timestep kper="1" kstp="174" mode="normal"


end timestep


start timestep kper="1" kstp="175" mode="normal"


end timestep


start timestep kper="1" kstp="176" mode="normal"


end timestep


start timestep kper="1" kstp="177" mode="normal"


end timestep


start timestep kper="1" kstp="178" mode="normal"


end timestep


start timestep kper="1" kstp="179" mode="normal"


end timestep


start timestep kper="1" kstp="180" mode="normal"


end timestep


start timestep kper="1" kstp="181" mode="normal"


end timestep


start timestep kper="1" kstp="182" mode="normal"


end timestep


start timestep kper="1" kstp="183" mode="normal"


end timestep


start timestep kper="1" kstp="184" mode="normal"


end timestep


start timestep kper="1" kstp="185" mode="normal"


end timestep


start timestep kper="1" kstp="186" mode="normal"


end timestep


start timestep kper="1" kstp="187" mode="normal"


end timestep


start timestep kper="1" kstp="188" mode="normal"


end timestep


start timestep kper="1" kstp="189" mode="normal"


end timestep


start timestep kper="1" kstp="190" mode="normal"


end timestep


start timestep kper="1" kstp="191" mode="normal"


end timestep


start timestep kper="1" kstp="192" mode="normal"


end timestep


start timestep kper="1" kstp="193" mode="normal"


end timestep


start timestep kper="1" kstp="194" mode="normal"


end timestep


start timestep kper="1" kstp="195" mode="normal"


end timestep


start timestep kper="1" kstp="196" mode="normal"


end timestep


start timestep kper="1" kstp="197" mode="normal"


end timestep


start timestep kper="1" kstp="198" mode="normal"


end timestep


start timestep kper="1" kstp="199" mode="normal"


end timestep


start timestep kper="1" kstp="200" mode="normal"


end timestep


start timestep kper="1" kstp="201" mode="normal"


end timestep


start timestep kper="1" kstp="202" mode="normal"


end timestep


start timestep kper="1" kstp="203" mode="normal"


end timestep


start timestep kper="1" kstp="204" mode="normal"


end timestep


start timestep kper="1" kstp="205" mode="normal"


end timestep


start timestep kper="1" kstp="206" mode="normal"


end timestep


start timestep kper="1" kstp="207" mode="normal"


end timestep


start timestep kper="1" kstp="208" mode="normal"


end timestep


start timestep kper="1" kstp="209" mode="normal"


end timestep


start timestep kper="1" kstp="210" mode="normal"


end timestep


start timestep kper="1" kstp="211" mode="normal"


end timestep


start timestep kper="1" kstp="212" mode="normal"


end timestep


start timestep kper="1" kstp="213" mode="normal"


end timestep


start timestep kper="1" kstp="214" mode="normal"


end timestep


start timestep kper="1" kstp="215" mode="normal"


end timestep


start timestep kper="1" kstp="216" mode="normal"


end timestep


start timestep kper="1" kstp="217" mode="normal"


end timestep


start timestep kper="1" kstp="218" mode="normal"


end timestep


start timestep kper="1" kstp="219" mode="normal"


end timestep


start timestep kper="1" kstp="220" mode="normal"


end timestep


start timestep kper="1" kstp="221" mode="normal"


end timestep


start timestep kper="1" kstp="222" mode="normal"


end timestep


start timestep kper="1" kstp="223" mode="normal"


end timestep


start timestep kper="1" kstp="224" mode="normal"


end timestep


start timestep kper="1" kstp="225" mode="normal"


end timestep


start timestep kper="1" kstp="226" mode="normal"


end timestep


start timestep kper="1" kstp="227" mode="normal"


end timestep


start timestep kper="1" kstp="228" mode="normal"


end timestep


start timestep kper="1" kstp="229" mode="normal"


end timestep


start timestep kper="1" kstp="230" mode="normal"


end timestep


start timestep kper="1" kstp="231" mode="normal"


end timestep


start timestep kper="1" kstp="232" mode="normal"


end timestep


start timestep kper="1" kstp="233" mode="normal"


end timestep


start timestep kper="1" kstp="234" mode="normal"


end timestep


start timestep kper="1" kstp="235" mode="normal"


end timestep


start timestep kper="1" kstp="236" mode="normal"


end timestep


start timestep kper="1" kstp="237" mode="normal"


end timestep


start timestep kper="1" kstp="238" mode="normal"


end timestep


start timestep kper="1" kstp="239" mode="normal"


end timestep


start timestep kper="1" kstp="240" mode="normal"


end timestep


start timestep kper="1" kstp="241" mode="normal"


end timestep


start timestep kper="1" kstp="242" mode="normal"


end timestep


start timestep kper="1" kstp="243" mode="normal"


end timestep


start timestep kper="1" kstp="244" mode="normal"


end timestep


start timestep kper="1" kstp="245" mode="normal"


end timestep


start timestep kper="1" kstp="246" mode="normal"


end timestep


start timestep kper="1" kstp="247" mode="normal"


end timestep


start timestep kper="1" kstp="248" mode="normal"


end timestep


start timestep kper="1" kstp="249" mode="normal"


end timestep


start timestep kper="1" kstp="250" mode="normal"


end timestep


start timestep kper="1" kstp="251" mode="normal"


end timestep


start timestep kper="1" kstp="252" mode="normal"


end timestep


start timestep kper="1" kstp="253" mode="normal"


end timestep


start timestep kper="1" kstp="254" mode="normal"


end timestep


start timestep kper="1" kstp="255" mode="normal"


end timestep


start timestep kper="1" kstp="256" mode="normal"


end timestep


start timestep kper="1" kstp="257" mode="normal"


end timestep


start timestep kper="1" kstp="258" mode="normal"


end timestep


start timestep kper="1" kstp="259" mode="normal"


end timestep


start timestep kper="1" kstp="260" mode="normal"


end timestep


start timestep kper="1" kstp="261" mode="normal"


end timestep


start timestep kper="1" kstp="262" mode="normal"


end timestep


start timestep kper="1" kstp="263" mode="normal"


end timestep


start timestep kper="1" kstp="264" mode="normal"


end timestep


start timestep kper="1" kstp="265" mode="normal"


end timestep


start timestep kper="1" kstp="266" mode="normal"


end timestep


start timestep kper="1" kstp="267" mode="normal"


end timestep


start timestep kper="1" kstp="268" mode="normal"


end timestep


start timestep kper="1" kstp="269" mode="normal"


end timestep


start timestep kper="1" kstp="270" mode="normal"


end timestep


start timestep kper="1" kstp="271" mode="normal"


end timestep


start timestep kper="1" kstp="272" mode="normal"


end timestep


start timestep kper="1" kstp="273" mode="normal"


end timestep


start timestep kper="1" kstp="274" mode="normal"


end timestep


start timestep kper="1" kstp="275" mode="normal"


end timestep


start timestep kper="1" kstp="276" mode="normal"


end timestep


start timestep kper="1" kstp="277" mode="normal"


end timestep


start timestep kper="1" kstp="278" mode="normal"


end timestep


start timestep kper="1" kstp="279" mode="normal"


end timestep


start timestep kper="1" kstp="280" mode="normal"


end timestep


start timestep kper="1" kstp="281" mode="normal"


end timestep


start timestep kper="1" kstp="282" mode="normal"


end timestep


start timestep kper="1" kstp="283" mode="normal"


end timestep


start timestep kper="1" kstp="284" mode="normal"


end timestep


start timestep kper="1" kstp="285" mode="normal"


end timestep


start timestep kper="1" kstp="286" mode="normal"


end timestep


start timestep kper="1" kstp="287" mode="normal"


end timestep


start timestep kper="1" kstp="288" mode="normal"


end timestep


start timestep kper="1" kstp="289" mode="normal"


end timestep


start timestep kper="1" kstp="290" mode="normal"


end timestep


start timestep kper="1" kstp="291" mode="normal"


end timestep


start timestep kper="1" kstp="292" mode="normal"


end timestep


start timestep kper="1" kstp="293" mode="normal"


end timestep


start timestep kper="1" kstp="294" mode="normal"


end timestep


start timestep kper="1" kstp="295" mode="normal"


end timestep


start timestep kper="1" kstp="296" mode="normal"


end timestep


start timestep kper="1" kstp="297" mode="normal"


end timestep


start timestep kper="1" kstp="298" mode="normal"


end timestep


start timestep kper="1" kstp="299" mode="normal"


end timestep


start timestep kper="1" kstp="300" mode="normal"


end timestep


start timestep kper="1" kstp="301" mode="normal"


end timestep


start timestep kper="1" kstp="302" mode="normal"


end timestep


start timestep kper="1" kstp="303" mode="normal"


end timestep


start timestep kper="1" kstp="304" mode="normal"


end timestep


start timestep kper="1" kstp="305" mode="normal"


end timestep


start timestep kper="1" kstp="306" mode="normal"


end timestep


start timestep kper="1" kstp="307" mode="normal"


end timestep


start timestep kper="1" kstp="308" mode="normal"


end timestep


start timestep kper="1" kstp="309" mode="normal"


end timestep


start timestep kper="1" kstp="310" mode="normal"


end timestep


start timestep kper="1" kstp="311" mode="normal"


end timestep


start timestep kper="1" kstp="312" mode="normal"


end timestep


start timestep kper="1" kstp="313" mode="normal"


end timestep


start timestep kper="1" kstp="314" mode="normal"


end timestep


start timestep kper="1" kstp="315" mode="normal"


end timestep


start timestep kper="1" kstp="316" mode="normal"


end timestep


start timestep kper="1" kstp="317" mode="normal"


end timestep


start timestep kper="1" kstp="318" mode="normal"


end timestep


start timestep kper="1" kstp="319" mode="normal"


end timestep


start timestep kper="1" kstp="320" mode="normal"


end timestep


start timestep kper="1" kstp="321" mode="normal"


end timestep


start timestep kper="1" kstp="322" mode="normal"


end timestep


start timestep kper="1" kstp="323" mode="normal"


end timestep


start timestep kper="1" kstp="324" mode="normal"


end timestep


start timestep kper="1" kstp="325" mode="normal"


end timestep


start timestep kper="1" kstp="326" mode="normal"


end timestep


start timestep kper="1" kstp="327" mode="normal"


end timestep


start timestep kper="1" kstp="328" mode="normal"


end timestep


start timestep kper="1" kstp="329" mode="normal"


end timestep


start timestep kper="1" kstp="330" mode="normal"


end timestep


start timestep kper="1" kstp="331" mode="normal"


end timestep


start timestep kper="1" kstp="332" mode="normal"


end timestep


start timestep kper="1" kstp="333" mode="normal"


end timestep


start timestep kper="1" kstp="334" mode="normal"


end timestep


start timestep kper="1" kstp="335" mode="normal"


end timestep


start timestep kper="1" kstp="336" mode="normal"


end timestep


start timestep kper="1" kstp="337" mode="normal"


end timestep


start timestep kper="1" kstp="338" mode="normal"


end timestep


start timestep kper="1" kstp="339" mode="normal"


end timestep


start timestep kper="1" kstp="340" mode="normal"


end timestep


start timestep kper="1" kstp="341" mode="normal"


end timestep


start timestep kper="1" kstp="342" mode="normal"


end timestep


start timestep kper="1" kstp="343" mode="normal"


end timestep


start timestep kper="1" kstp="344" mode="normal"


end timestep


start timestep kper="1" kstp="345" mode="normal"


end timestep


start timestep kper="1" kstp="346" mode="normal"


end timestep


start timestep kper="1" kstp="347" mode="normal"


end timestep


start timestep kper="1" kstp="348" mode="normal"


end timestep


start timestep kper="1" kstp="349" mode="normal"


end timestep


start timestep kper="1" kstp="350" mode="normal"


end timestep


start timestep kper="1" kstp="351" mode="normal"


end timestep


start timestep kper="1" kstp="352" mode="normal"


end timestep


start timestep kper="1" kstp="353" mode="normal"


end timestep


start timestep kper="1" kstp="354" mode="normal"


end timestep


start timestep kper="1" kstp="355" mode="normal"


end timestep


start timestep kper="1" kstp="356" mode="normal"


end timestep


start timestep kper="1" kstp="357" mode="normal"


end timestep


start timestep kper="1" kstp="358" mode="normal"


end timestep


start timestep kper="1" kstp="359" mode="normal"


end timestep


start timestep kper="1" kstp="360" mode="normal"


end timestep


start timestep kper="1" kstp="361" mode="normal"


end timestep


start timestep kper="1" kstp="362" mode="normal"


end timestep


start timestep kper="1" kstp="363" mode="normal"


end timestep


start timestep kper="1" kstp="364" mode="normal"


end timestep


start timestep kper="1" kstp="365" mode="normal"

 UBDSV1 SAVING  STORAGE-AQUEOUS ON UNIT   1029 AT TIME STEP    365, STRESS PERIOD      1
 UBDSV1 SAVING     FLOW-JA-FACE ON UNIT   1029 AT TIME STEP    365, STRESS PERIOD      1
 UBDSV06 SAVING  SOURCE-SINK MIX IN MODEL GWT_P06-MF6      PACKAGE GWT_P06-MF6     CONNECTED TO MODEL GWT_P06-MF6      PACKAGE SSM              ON UNIT   1029 AT TIME STEP    365, STRESS PERIOD      1
1
  CONCENTRATION IN LAYER   1 AT END OF TIME STEP 365 IN STRESS PERIOD    1
  ---------------------------------------------------------------------------

                1               2               3               4               5               6               7               8               9              10
               11              12              13              14              15              16              17              18              19              20
               21              22              23              24              25              26              27              28              29              30
               31
 ................................................................................................................................................................................................................................................................................................................................................................................................................................................................................................................
   1      0.00000       -2.857099E-51   -2.893279E-48   -1.416444E-45   -4.300869E-43   -8.851188E-41   -1.275367E-38   -1.284271E-36   -8.668176E-35   -3.395830E-33
        -2.398035E-32    4.971534E-30    2.746220E-28    6.648707E-27    8.166105E-26    6.308236E-25    8.166123E-26    6.648925E-27    2.746727E-28    4.975897E-30
        -2.379147E-32   -3.390872E-33   -8.659424E-35   -1.283178E-36   -1.274377E-38   -8.844659E-41   -4.297774E-43   -1.415432E-45   -2.891197E-48   -2.855007E-51
          0.00000    
   2    -2.857099E-51   -2.736712E-48   -1.335241E-45   -4.113623E-43   -8.717824E-41   -1.310074E-38   -1.385389E-36   -9.673410E-35   -3.369314E-33    9.469262E-32
         1.948138E-29    1.204097E-27    4.283274E-26    9.348688E-25    1.132495E-23    9.343043E-23    1.132495E-23    9.348778E-25    4.283514E-26    1.204337E-27
         1.949338E-29    9.506142E-32   -3.361613E-33   -9.661863E-35   -1.384109E-36   -1.309012E-38   -8.711245E-41   -4.110627E-43   -1.334281E-45   -2.734737E-48
        -2.855006E-51
   3    -2.893279E-48   -1.335241E-45   -4.050792E-43   -8.658515E-41   -1.335818E-38   -1.467802E-36   -1.060359E-34   -3.336450E-33    2.438709E-31    4.138776E-29
         2.951218E-27    1.311725E-25    3.895781E-24    7.798454E-23    8.999161E-22    6.290981E-21    8.999163E-22    7.798487E-23    3.895882E-24    1.311842E-25
         2.951900E-27    4.141216E-29    2.444678E-31   -3.325869E-33   -1.058953E-34   -1.466376E-36   -1.334707E-38   -8.651887E-41   -4.047820E-43   -1.334277E-45
        -2.891186E-48
   4    -1.416444E-45   -4.113623E-43   -8.658515E-41   -1.343936E-38   -1.510489E-36   -1.121537E-34   -3.272102E-33    3.942068E-31    6.726984E-29    5.430885E-27
         2.854636E-25    1.037742E-23    2.652113E-22    4.830029E-21    5.845875E-20    2.918790E-19    5.845876E-20    4.830039E-21    2.652148E-22    1.037790E-23
         2.854969E-25    5.432279E-27    6.730962E-29    3.950338E-31   -3.259097E-33   -1.119954E-34   -1.508979E-36   -1.342802E-38   -8.651840E-41   -4.110593E-43
        -1.415419E-45
   5    -4.300869E-43   -8.717824E-41   -1.335818E-38   -1.510489E-36   -1.142848E-34   -3.225234E-33    5.062755E-31    9.074755E-29    8.139766E-27    4.896595E-25
         2.093904E-23    6.418195E-22    1.399823E-20    2.201137E-19    3.443822E-18    1.093628E-17    3.443822E-18    2.201139E-19    1.399832E-20    6.418360E-22
         2.094040E-23    4.897266E-25    8.142004E-27    9.080193E-29    5.072794E-31   -3.210762E-33   -1.141191E-34   -1.508964E-36   -1.334688E-38   -8.711103E-41
        -4.297703E-43
   6    -8.851188E-41   -1.310074E-38   -1.467802E-36   -1.121537E-34   -3.225234E-33    5.477861E-31    1.047936E-28    1.027626E-26    6.905124E-25    3.379372E-23
         1.221592E-21    3.212931E-20    5.867027E-19    6.991296E-18    1.889668E-16    4.277778E-15    1.889668E-16    6.991298E-18    5.867046E-19    3.212975E-20
         1.221636E-21    3.379636E-23    6.906164E-25    1.027922E-26    1.048575E-28    5.488667E-31   -3.210567E-33   -1.119917E-34   -1.466332E-36   -1.308975E-38
        -8.844416E-41
   7    -1.275367E-38   -1.385389E-36   -1.060359E-34   -3.272102E-33    5.062755E-31    1.047936E-28    1.109069E-26    8.165974E-25    4.468392E-23    1.862501E-21
         5.957293E-20    1.413101E-18    2.245003E-17    1.703467E-15    8.607504E-14    1.852835E-12    8.607504E-14    1.703467E-15    2.245006E-17    1.413110E-18
         5.957406E-20    1.862584E-21    4.468779E-23    8.167271E-25    1.109397E-26    1.048586E-28    5.073108E-31   -3.258557E-33   -1.058884E-34   -1.384040E-36
        -1.274321E-38
   8    -1.284271E-36   -9.673410E-35   -3.336450E-33    3.942068E-31    9.074755E-29    1.027626E-26    8.165974E-25    4.898404E-23    2.293838E-21    8.661396E-20
         2.671634E-18    6.282153E-17    7.895286E-15    6.672884E-13    3.219235E-11    6.624635E-10    3.219235E-11    6.672884E-13    7.895287E-15    6.282164E-17
         2.671654E-18    8.661588E-20    2.293949E-21    4.898849E-23    8.167302E-25    1.027934E-26    9.080491E-29    3.950878E-31   -3.325098E-33   -9.660965E-35
        -1.283090E-36
   9    -8.668176E-35   -3.369314E-33    2.438709E-31    6.726984E-29    8.139766E-27    6.905124E-25    4.468392E-23    2.293838E-21    9.809982E-20    3.686330E-18
         1.193620E-16    2.107951E-14    2.618974E-12    2.108066E-10    9.704277E-09    1.904564E-07    9.704277E-09    2.108066E-10    2.618974E-12    2.107951E-14
         1.193623E-16    3.686362E-18    9.810216E-20    2.293953E-21    4.468801E-23    6.906240E-25    8.142198E-27    6.731348E-29    2.445303E-31   -3.360769E-33
        -8.658442E-35
  10    -3.395830E-33    9.469262E-32    4.138776E-29    5.430885E-27    4.896595E-25    3.379372E-23    1.862501E-21    8.661396E-20    3.686330E-18    1.479174E-16
         3.414253E-14    5.783661E-12    6.820011E-10    5.205174E-08    2.275821E-06    4.238232E-05    2.275821E-06    5.205174E-08    6.820011E-10    5.783661E-12
         3.414253E-14    1.479178E-16    3.686364E-18    8.661604E-20    1.862592E-21    3.379667E-23    4.897354E-25    5.432475E-27    4.141578E-29    9.511781E-32
        -3.390101E-33
  11    -2.398035E-32    1.948138E-29    2.951218E-27    2.854636E-25    2.093904E-23    1.221592E-21    5.957293E-20    2.671634E-18    1.193620E-16    3.414253E-14
         7.491759E-12    1.205031E-09    1.340600E-07    9.600878E-06    3.937976E-04    6.811185E-03    3.937976E-04    9.600878E-06    1.340600E-07    1.205031E-09
         7.491759E-12    3.414253E-14    1.193623E-16    2.671657E-18    5.957425E-20    1.221645E-21    2.094067E-23    2.855037E-25    2.952043E-27    1.949595E-29
        -2.375059E-32
  12     4.971534E-30    1.204097E-27    1.311725E-25    1.037742E-23    6.418195E-22    3.212931E-20    1.413101E-18    6.282153E-17    2.107951E-14    5.783661E-12
         1.205031E-09    1.815842E-07    1.882777E-05    1.233296E-03    4.480686E-02    0.618620        4.480686E-02    1.233296E-03    1.882777E-05    1.815842E-07
         1.205031E-09    5.783661E-12    2.107951E-14    6.282167E-17    1.413112E-18    3.212987E-20    6.418408E-22    1.037805E-23    1.311877E-25    1.204409E-27
         4.977228E-30
  13     2.746220E-28    4.283274E-26    3.895781E-24    2.652113E-22    1.399823E-20    5.867027E-19    2.245003E-17    7.895286E-15    2.618974E-12    6.820011E-10
         1.340600E-07    1.882777E-05    1.742256E-03    9.547236E-02     2.29701         15.2685         2.29701        9.547236E-02    1.742256E-03    1.882777E-05
         1.340600E-07    6.820011E-10    2.618974E-12    7.895287E-15    2.245007E-17    5.867054E-19    1.399836E-20    2.652163E-22    3.895925E-24    4.283618E-26
         2.746945E-28
  14     6.648707E-27    9.348688E-25    7.798454E-23    4.830029E-21    2.201137E-19    6.991296E-18    1.703467E-15    6.672884E-13    2.108066E-10    5.205174E-08
         9.600878E-06    1.233296E-03    9.547236E-02     3.13300         27.9431         68.1293         27.9431         3.13300        9.547236E-02    1.233296E-03
         9.600878E-06    5.205174E-08    2.108066E-10    6.672884E-13    1.703467E-15    6.991300E-18    2.201140E-19    4.830043E-21    7.798501E-23    9.348820E-25
         6.649027E-27
  15     8.166105E-26    1.132495E-23    8.999161E-22    5.845875E-20    3.443822E-18    1.889668E-16    8.607504E-14    3.219235E-11    9.704277E-09    2.275821E-06
         3.937976E-04    4.480686E-02     2.29701         27.9431         77.8948         96.8021         77.8948         27.9431         2.29701        4.480686E-02
         3.937976E-04    2.275821E-06    9.704277E-09    3.219235E-11    8.607504E-14    1.889668E-16    3.443822E-18    5.845876E-20    8.999163E-22    1.132496E-23
         8.166128E-26
  16     6.308236E-25    9.343043E-23    6.290981E-21    2.918790E-19    1.093628E-17    4.277778E-15    1.852835E-12    6.624635E-10    1.904564E-07    4.238232E-05
         6.811185E-03    0.618620         15.2685         68.1293         96.8021         99.9999         96.8021         68.1293         15.2685        0.618620    
         6.811185E-03    4.238232E-05    1.904564E-07    6.624635E-10    1.852835E-12    4.277778E-15    1.093628E-17    2.918790E-19    6.290981E-21    9.343043E-23
         6.308236E-25
  17     8.166123E-26    1.132495E-23    8.999163E-22    5.845876E-20    3.443822E-18    1.889668E-16    8.607504E-14    3.219235E-11    9.704277E-09    2.275821E-06
         3.937976E-04    4.480686E-02     2.29701         27.9431         77.8948         96.8021         77.8948         27.9431         2.29701        4.480686E-02
         3.937976E-04    2.275821E-06    9.704277E-09    3.219235E-11    8.607504E-14    1.889668E-16    3.443822E-18    5.845875E-20    8.999161E-22    1.132495E-23
         8.166105E-26
  18     6.648925E-27    9.348778E-25    7.798487E-23    4.830039E-21    2.201139E-19    6.991298E-18    1.703467E-15    6.672884E-13    2.108066E-10    5.205174E-08
         9.600878E-06    1.233296E-03    9.547236E-02     3.13300         27.9431         68.1293         27.9431         3.13300        9.547236E-02    1.233296E-03
         9.600878E-06    5.205174E-08    2.108066E-10    6.672884E-13    1.703467E-15    6.991296E-18    2.201137E-19    4.830029E-21    7.798454E-23    9.348688E-25
         6.648707E-27
  19     2.746727E-28    4.283514E-26    3.895882E-24    2.652148E-22    1.399832E-20    5.867046E-19    2.245006E-17    7.895287E-15    2.618974E-12    6.820011E-10
         1.340600E-07    1.882777E-05    1.742256E-03    9.547236E-02     2.29701         15.2685         2.29701        9.547236E-02    1.742256E-03    1.882777E-05
         1.340600E-07    6.820011E-10    2.618974E-12    7.895286E-15    2.245003E-17    5.867027E-19    1.399823E-20    2.652113E-22    3.895781E-24    4.283274E-26
         2.746220E-28
  20     4.975897E-30    1.204337E-27    1.311842E-25    1.037790E-23    6.418360E-22    3.212975E-20    1.413110E-18    6.282164E-17    2.107951E-14    5.783661E-12
         1.205031E-09    1.815842E-07    1.882777E-05    1.233296E-03    4.480686E-02    0.618620        4.480686E-02    1.233296E-03    1.882777E-05    1.815842E-07
         1.205031E-09    5.783661E-12    2.107951E-14    6.282153E-17    1.413101E-18    3.212931E-20    6.418195E-22    1.037742E-23    1.311725E-25    1.204097E-27
         4.971534E-30
  21    -2.379147E-32    1.949338E-29    2.951900E-27    2.854969E-25    2.094040E-23    1.221636E-21    5.957406E-20    2.671654E-18    1.193623E-16    3.414253E-14
         7.491759E-12    1.205031E-09    1.340600E-07    9.600878E-06    3.937976E-04    6.811185E-03    3.937976E-04    9.600878E-06    1.340600E-07    1.205031E-09
         7.491759E-12    3.414253E-14    1.193620E-16    2.671634E-18    5.957293E-20    1.221592E-21    2.093904E-23    2.854636E-25    2.951218E-27    1.948138E-29
        -2.398035E-32
  22    -3.390872E-33    9.506142E-32    4.141216E-29    5.432279E-27    4.897266E-25    3.379636E-23    1.862584E-21    8.661588E-20    3.686362E-18    1.479178E-16
         3.414253E-14    5.783661E-12    6.820011E-10    5.205174E-08    2.275821E-06    4.238232E-05    2.275821E-06    5.205174E-08    6.820011E-10    5.783661E-12
         3.414253E-14    1.479174E-16    3.686330E-18    8.661396E-20    1.862501E-21    3.379372E-23    4.896595E-25    5.430885E-27    4.138776E-29    9.469262E-32
        -3.395830E-33
  23    -8.659424E-35   -3.361613E-33    2.444678E-31    6.730962E-29    8.142004E-27    6.906164E-25    4.468779E-23    2.293949E-21    9.810216E-20    3.686364E-18
         1.193623E-16    2.107951E-14    2.618974E-12    2.108066E-10    9.704277E-09    1.904564E-07    9.704277E-09    2.108066E-10    2.618974E-12    2.107951E-14
         1.193620E-16    3.686330E-18    9.809982E-20    2.293838E-21    4.468392E-23    6.905124E-25    8.139766E-27    6.726984E-29    2.438709E-31   -3.369314E-33
        -8.668176E-35
  24    -1.283178E-36   -9.661863E-35   -3.325869E-33    3.950338E-31    9.080193E-29    1.027922E-26    8.167271E-25    4.898849E-23    2.293953E-21    8.661604E-20
         2.671657E-18    6.282167E-17    7.895287E-15    6.672884E-13    3.219235E-11    6.624635E-10    3.219235E-11    6.672884E-13    7.895286E-15    6.282153E-17
         2.671634E-18    8.661396E-20    2.293838E-21    4.898404E-23    8.165974E-25    1.027626E-26    9.074755E-29    3.942068E-31   -3.336450E-33   -9.673410E-35
        -1.284271E-36
  25    -1.274377E-38   -1.384109E-36   -1.058953E-34   -3.259097E-33    5.072794E-31    1.048575E-28    1.109397E-26    8.167302E-25    4.468801E-23    1.862592E-21
         5.957425E-20    1.413112E-18    2.245007E-17    1.703467E-15    8.607504E-14    1.852835E-12    8.607504E-14    1.703467E-15    2.245003E-17    1.413101E-18
         5.957293E-20    1.862501E-21    4.468392E-23    8.165974E-25    1.109069E-26    1.047936E-28    5.062755E-31   -3.272102E-33   -1.060359E-34   -1.385389E-36
        -1.275367E-38
  26    -8.844659E-41   -1.309012E-38   -1.466376E-36   -1.119954E-34   -3.210762E-33    5.488667E-31    1.048586E-28    1.027934E-26    6.906240E-25    3.379667E-23
         1.221645E-21    3.212987E-20    5.867054E-19    6.991300E-18    1.889668E-16    4.277778E-15    1.889668E-16    6.991296E-18    5.867027E-19    3.212931E-20
         1.221592E-21    3.379372E-23    6.905124E-25    1.027626E-26    1.047936E-28    5.477861E-31   -3.225234E-33   -1.121537E-34   -1.467802E-36   -1.310074E-38
        -8.851188E-41
  27    -4.297774E-43   -8.711245E-41   -1.334707E-38   -1.508979E-36   -1.141191E-34   -3.210567E-33    5.073108E-31    9.080491E-29    8.142198E-27    4.897354E-25
         2.094067E-23    6.418408E-22    1.399836E-20    2.201140E-19    3.443822E-18    1.093628E-17    3.443822E-18    2.201137E-19    1.399823E-20    6.418195E-22
         2.093904E-23    4.896595E-25    8.139766E-27    9.074755E-29    5.062755E-31   -3.225234E-33   -1.142848E-34   -1.510489E-36   -1.335818E-38   -8.717824E-41
        -4.300869E-43
  28    -1.415432E-45   -4.110627E-43   -8.651887E-41   -1.342802E-38   -1.508964E-36   -1.119917E-34   -3.258557E-33    3.950878E-31    6.731348E-29    5.432475E-27
         2.855037E-25    1.037805E-23    2.652163E-22    4.830043E-21    5.845876E-20    2.918790E-19    5.845875E-20    4.830029E-21    2.652113E-22    1.037742E-23
         2.854636E-25    5.430885E-27    6.726984E-29    3.942068E-31   -3.272102E-33   -1.121537E-34   -1.510489E-36   -1.343936E-38   -8.658515E-41   -4.113623E-43
        -1.416444E-45
  29    -2.891197E-48   -1.334281E-45   -4.047820E-43   -8.651840E-41   -1.334688E-38   -1.466332E-36   -1.058884E-34   -3.325098E-33    2.445303E-31    4.141578E-29
         2.952043E-27    1.311877E-25    3.895925E-24    7.798501E-23    8.999163E-22    6.290981E-21    8.999161E-22    7.798454E-23    3.895781E-24    1.311725E-25
         2.951218E-27    4.138776E-29    2.438709E-31   -3.336450E-33   -1.060359E-34   -1.467802E-36   -1.335818E-38   -8.658515E-41   -4.050792E-43   -1.335241E-45
        -2.893279E-48
  30    -2.855007E-51   -2.734737E-48   -1.334277E-45   -4.110593E-43   -8.711103E-41   -1.308975E-38   -1.384040E-36   -9.660965E-35   -3.360769E-33    9.511781E-32
         1.949595E-29    1.204409E-27    4.283618E-26    9.348820E-25    1.132496E-23    9.343043E-23    1.132495E-23    9.348688E-25    4.283274E-26    1.204097E-27
         1.948138E-29    9.469262E-32   -3.369314E-33   -9.673410E-35   -1.385389E-36   -1.310074E-38   -8.717824E-41   -4.113623E-43   -1.335241E-45   -2.736712E-48
        -2.857099E-51
  31      0.00000       -2.855006E-51   -2.891186E-48   -1.415419E-45   -4.297703E-43   -8.844416E-41   -1.274321E-38   -1.283090E-36   -8.658442E-35   -3.390101E-33
        -2.375059E-32    4.977228E-30    2.746945E-28    6.649027E-27    8.166128E-26    6.308236E-25    8.166105E-26    6.648707E-27    2.746220E-28    4.971534E-30
        -2.398035E-32   -3.395830E-33   -8.668176E-35   -1.284271E-36   -1.275367E-38   -8.851188E-41   -4.300869E-43   -1.416444E-45   -2.893279E-48   -2.857099E-51
          0.00000    

 CONCENTRATION WILL BE SAVED ON UNIT 1030 AT END OF TIME STEP  365, STRESS PERIOD    1


  MASS BUDGET FOR ENTIRE MODEL AT END OF TIME STEP  365, STRESS PERIOD   1
  ---------------------------------------------------------------------------------------------------

     CUMULATIVE MASS      M       RATES FOR THIS TIME STEP      M/T          PACKAGE NAME    
     ------------------                 ------------------------                     ----------------

           IN:                                      IN:
           ---                                      ---
     STORAGE-AQUEOUS =       1.1525E-02       STORAGE-AQUEOUS =       1.1717E-28     MST                              
                 WEL =  7884000000.0000                   WEL =     8640000.0000     SSM_WEL-1                        
                 CHD =           0.0000                   CHD =           0.0000     SSM_CHD-1                        

            TOTAL IN =  7884000000.0115              TOTAL IN =     8640000.0000

          OUT:                                     OUT:
          ----                                     ----
     STORAGE-AQUEOUS =  7884000000.0115       STORAGE-AQUEOUS =     8640000.0000     MST                              
                 WEL =           0.0000                   WEL =           0.0000     SSM_WEL-1                        
                 CHD =       7.3342E-20                   CHD =       3.8892E-21     SSM_CHD-1                        

           TOTAL OUT =  7884000000.0115             TOTAL OUT =     8640000.0000

            IN - OUT =       1.3351E-05              IN - OUT =       3.9116E-08

 PERCENT DISCREPANCY =           0.00     PERCENT DISCREPANCY =           0.00




         TIME SUMMARY AT END OF TIME STEP  365 IN STRESS PERIOD    1
                    SECONDS     MINUTES      HOURS       DAYS        YEARS
                    -----------------------------------------------------------
   TIME STEP LENGTH 2.16000E+05  3600.0      60.000      2.5000     6.84463E-03
 STRESS PERIOD TIME 7.88400E+07 1.31400E+06  21900.      912.50      2.4983    
         TOTAL TIME 7.88400E+07 1.31400E+06  21900.      912.50      2.4983    


end timestep


start timestep kper="2" kstp="1" mode="normal"


 END OF FILE DETECTED IN OUTPUT CONTROL.
 CURRENT OUTPUT CONTROL SETTINGS WILL BE 
 REPEATED UNTIL THE END OF THE SIMULATION.

 OUTPUT CONTROL FOR STRESS PERIOD 2 IS REPEATED USING SETTINGS FROM A PREVIOUS STRESS PERIOD.

end timestep


start timestep kper="2" kstp="2" mode="normal"


end timestep


start timestep kper="2" kstp="3" mode="normal"


end timestep


start timestep kper="2" kstp="4" mode="normal"


end timestep


start timestep kper="2" kstp="5" mode="normal"


end timestep


start timestep kper="2" kstp="6" mode="normal"


end timestep


start timestep kper="2" kstp="7" mode="normal"


end timestep


start timestep kper="2" kstp="8" mode="normal"


end timestep


start timestep kper="2" kstp="9" mode="normal"


end timestep


start timestep kper="2" kstp="10" mode="normal"


end timestep


start timestep kper="2" kstp="11" mode="normal"


end timestep


start timestep kper="2" kstp="12" mode="normal"


end timestep


start timestep kper="2" kstp="13" mode="normal"


end timestep


start timestep kper="2" kstp="14" mode="normal"


end timestep


start timestep kper="2" kstp="15" mode="normal"


end timestep


start timestep kper="2" kstp="16" mode="normal"


end timestep


start timestep kper="2" kstp="17" mode="normal"


end timestep


start timestep kper="2" kstp="18" mode="normal"


end timestep


start timestep kper="2" kstp="19" mode="normal"


end timestep


start timestep kper="2" kstp="20" mode="normal"


end timestep


start timestep kper="2" kstp="21" mode="normal"


end timestep


start timestep kper="2" kstp="22" mode="normal"


end timestep


start timestep kper="2" kstp="23" mode="normal"


end timestep


start timestep kper="2" kstp="24" mode="normal"


end timestep


start timestep kper="2" kstp="25" mode="normal"


end timestep


start timestep kper="2" kstp="26" mode="normal"


end timestep


start timestep kper="2" kstp="27" mode="normal"


end timestep


start timestep kper="2" kstp="28" mode="normal"


end timestep


start timestep kper="2" kstp="29" mode="normal"


end timestep


start timestep kper="2" kstp="30" mode="normal"


end timestep


start timestep kper="2" kstp="31" mode="normal"


end timestep


start timestep kper="2" kstp="32" mode="normal"


end timestep


start timestep kper="2" kstp="33" mode="normal"


end timestep


start timestep kper="2" kstp="34" mode="normal"


end timestep


start timestep kper="2" kstp="35" mode="normal"


end timestep


start timestep kper="2" kstp="36" mode="normal"


end timestep


start timestep kper="2" kstp="37" mode="normal"


end timestep


start timestep kper="2" kstp="38" mode="normal"


end timestep


start timestep kper="2" kstp="39" mode="normal"


end timestep


start timestep kper="2" kstp="40" mode="normal"


end timestep


start timestep kper="2" kstp="41" mode="normal"


end timestep


start timestep kper="2" kstp="42" mode="normal"


end timestep


start timestep kper="2" kstp="43" mode="normal"


end timestep


start timestep kper="2" kstp="44" mode="normal"


end timestep


start timestep kper="2" kstp="45" mode="normal"


end timestep


start timestep kper="2" kstp="46" mode="normal"


end timestep


start timestep kper="2" kstp="47" mode="normal"


end timestep


start timestep kper="2" kstp="48" mode="normal"


end timestep


start timestep kper="2" kstp="49" mode="normal"


end timestep


start timestep kper="2" kstp="50" mode="normal"


end timestep


start timestep kper="2" kstp="51" mode="normal"


end timestep


start timestep kper="2" kstp="52" mode="normal"


end timestep


start timestep kper="2" kstp="53" mode="normal"


end timestep


start timestep kper="2" kstp="54" mode="normal"


end timestep


start timestep kper="2" kstp="55" mode="normal"


end timestep


start timestep kper="2" kstp="56" mode="normal"


end timestep


start timestep kper="2" kstp="57" mode="normal"


end timestep


start timestep kper="2" kstp="58" mode="normal"


end timestep


start timestep kper="2" kstp="59" mode="normal"


end timestep


start timestep kper="2" kstp="60" mode="normal"


end timestep


start timestep kper="2" kstp="61" mode="normal"


end timestep


start timestep kper="2" kstp="62" mode="normal"


end timestep


start timestep kper="2" kstp="63" mode="normal"


end timestep


start timestep kper="2" kstp="64" mode="normal"


end timestep


start timestep kper="2" kstp="65" mode="normal"


end timestep


start timestep kper="2" kstp="66" mode="normal"


end timestep


start timestep kper="2" kstp="67" mode="normal"


end timestep


start timestep kper="2" kstp="68" mode="normal"


end timestep


start timestep kper="2" kstp="69" mode="normal"


end timestep


start timestep kper="2" kstp="70" mode="normal"


end timestep


start timestep kper="2" kstp="71" mode="normal"


end timestep


start timestep kper="2" kstp="72" mode="normal"


end timestep


start timestep kper="2" kstp="73" mode="normal"


end timestep


start timestep kper="2" kstp="74" mode="normal"


end timestep


start timestep kper="2" kstp="75" mode="normal"


end timestep


start timestep kper="2" kstp="76" mode="normal"


end timestep


start timestep kper="2" kstp="77" mode="normal"


end timestep


start timestep kper="2" kstp="78" mode="normal"


end timestep


start timestep kper="2" kstp="79" mode="normal"


end timestep


start timestep kper="2" kstp="80" mode="normal"


end timestep


start timestep kper="2" kstp="81" mode="normal"


end timestep


start timestep kper="2" kstp="82" mode="normal"


end timestep


start timestep kper="2" kstp="83" mode="normal"


end timestep


start timestep kper="2" kstp="84" mode="normal"


end timestep


start timestep kper="2" kstp="85" mode="normal"


end timestep


start timestep kper="2" kstp="86" mode="normal"


end timestep


start timestep kper="2" kstp="87" mode="normal"


end timestep


start timestep kper="2" kstp="88" mode="normal"


end timestep


start timestep kper="2" kstp="89" mode="normal"


end timestep


start timestep kper="2" kstp="90" mode="normal"


end timestep


start timestep kper="2" kstp="91" mode="normal"


end timestep


start timestep kper="2" kstp="92" mode="normal"


end timestep


start timestep kper="2" kstp="93" mode="normal"


end timestep


start timestep kper="2" kstp="94" mode="normal"


end timestep


start timestep kper="2" kstp="95" mode="normal"


end timestep


start timestep kper="2" kstp="96" mode="normal"


end timestep


start timestep kper="2" kstp="97" mode="normal"


end timestep


start timestep kper="2" kstp="98" mode="normal"


end timestep


start timestep kper="2" kstp="99" mode="normal"


end timestep


start timestep kper="2" kstp="100" mode="normal"


end timestep


start timestep kper="2" kstp="101" mode="normal"


end timestep


start timestep kper="2" kstp="102" mode="normal"


end timestep


start timestep kper="2" kstp="103" mode="normal"


end timestep


start timestep kper="2" kstp="104" mode="normal"


end timestep


start timestep kper="2" kstp="105" mode="normal"


end timestep


start timestep kper="2" kstp="106" mode="normal"


end timestep


start timestep kper="2" kstp="107" mode="normal"


end timestep


start timestep kper="2" kstp="108" mode="normal"


end timestep


start timestep kper="2" kstp="109" mode="normal"


end timestep


start timestep kper="2" kstp="110" mode="normal"


end timestep


start timestep kper="2" kstp="111" mode="normal"


end timestep


start timestep kper="2" kstp="112" mode="normal"


end timestep


start timestep kper="2" kstp="113" mode="normal"


end timestep


start timestep kper="2" kstp="114" mode="normal"


end timestep


start timestep kper="2" kstp="115" mode="normal"


end timestep


start timestep kper="2" kstp="116" mode="normal"


end timestep


start timestep kper="2" kstp="117" mode="normal"


end timestep


start timestep kper="2" kstp="118" mode="normal"


end timestep


start timestep kper="2" kstp="119" mode="normal"


end timestep


start timestep kper="2" kstp="120" mode="normal"


end timestep


start timestep kper="2" kstp="121" mode="normal"


end timestep


start timestep kper="2" kstp="122" mode="normal"


end timestep


start timestep kper="2" kstp="123" mode="normal"


end timestep


start timestep kper="2" kstp="124" mode="normal"


end timestep


start timestep kper="2" kstp="125" mode="normal"


end timestep


start timestep kper="2" kstp="126" mode="normal"


end timestep


start timestep kper="2" kstp="127" mode="normal"


end timestep


start timestep kper="2" kstp="128" mode="normal"


end timestep


start timestep kper="2" kstp="129" mode="normal"


end timestep


start timestep kper="2" kstp="130" mode="normal"


end timestep


start timestep kper="2" kstp="131" mode="normal"


end timestep


start timestep kper="2" kstp="132" mode="normal"


end timestep


start timestep kper="2" kstp="133" mode="normal"


end timestep


start timestep kper="2" kstp="134" mode="normal"


end timestep


start timestep kper="2" kstp="135" mode="normal"


end timestep


start timestep kper="2" kstp="136" mode="normal"


end timestep


start timestep kper="2" kstp="137" mode="normal"


end timestep


start timestep kper="2" kstp="138" mode="normal"


end timestep


start timestep kper="2" kstp="139" mode="normal"


end timestep


start timestep kper="2" kstp="140" mode="normal"


end timestep


start timestep kper="2" kstp="141" mode="normal"


end timestep


start timestep kper="2" kstp="142" mode="normal"


end timestep


start timestep kper="2" kstp="143" mode="normal"


end timestep


start timestep kper="2" kstp="144" mode="normal"


end timestep


start timestep kper="2" kstp="145" mode="normal"


end timestep


start timestep kper="2" kstp="146" mode="normal"


end timestep


start timestep kper="2" kstp="147" mode="normal"


end timestep


start timestep kper="2" kstp="148" mode="normal"


end timestep


start timestep kper="2" kstp="149" mode="normal"


end timestep


start timestep kper="2" kstp="150" mode="normal"


end timestep


start timestep kper="2" kstp="151" mode="normal"


end timestep


start timestep kper="2" kstp="152" mode="normal"


end timestep


start timestep kper="2" kstp="153" mode="normal"


end timestep


start timestep kper="2" kstp="154" mode="normal"


end timestep


start timestep kper="2" kstp="155" mode="normal"


end timestep


start timestep kper="2" kstp="156" mode="normal"


end timestep


start timestep kper="2" kstp="157" mode="normal"


end timestep


start timestep kper="2" kstp="158" mode="normal"


end timestep


start timestep kper="2" kstp="159" mode="normal"


end timestep


start timestep kper="2" kstp="160" mode="normal"


end timestep


start timestep kper="2" kstp="161" mode="normal"


end timestep


start timestep kper="2" kstp="162" mode="normal"


end timestep


start timestep kper="2" kstp="163" mode="normal"


end timestep


start timestep kper="2" kstp="164" mode="normal"


end timestep


start timestep kper="2" kstp="165" mode="normal"


end timestep


start timestep kper="2" kstp="166" mode="normal"


end timestep


start timestep kper="2" kstp="167" mode="normal"


end timestep


start timestep kper="2" kstp="168" mode="normal"


end timestep


start timestep kper="2" kstp="169" mode="normal"


end timestep


start timestep kper="2" kstp="170" mode="normal"


end timestep


start timestep kper="2" kstp="171" mode="normal"


end timestep


start timestep kper="2" kstp="172" mode="normal"


end timestep


start timestep kper="2" kstp="173" mode="normal"


end timestep


start timestep kper="2" kstp="174" mode="normal"


end timestep


start timestep kper="2" kstp="175" mode="normal"


end timestep


start timestep kper="2" kstp="176" mode="normal"


end timestep


start timestep kper="2" kstp="177" mode="normal"


end timestep


start timestep kper="2" kstp="178" mode="normal"


end timestep


start timestep kper="2" kstp="179" mode="normal"


end timestep


start timestep kper="2" kstp="180" mode="normal"


end timestep


start timestep kper="2" kstp="181" mode="normal"


end timestep


start timestep kper="2" kstp="182" mode="normal"


end timestep


start timestep kper="2" kstp="183" mode="normal"


end timestep


start timestep kper="2" kstp="184" mode="normal"


end timestep


start timestep kper="2" kstp="185" mode="normal"


end timestep


start timestep kper="2" kstp="186" mode="normal"


end timestep


start timestep kper="2" kstp="187" mode="normal"


end timestep


start timestep kper="2" kstp="188" mode="normal"


end timestep


start timestep kper="2" kstp="189" mode="normal"


end timestep


start timestep kper="2" kstp="190" mode="normal"


end timestep


start timestep kper="2" kstp="191" mode="normal"


end timestep


start timestep kper="2" kstp="192" mode="normal"


end timestep


start timestep kper="2" kstp="193" mode="normal"


end timestep


start timestep kper="2" kstp="194" mode="normal"


end timestep


start timestep kper="2" kstp="195" mode="normal"


end timestep


start timestep kper="2" kstp="196" mode="normal"


end timestep


start timestep kper="2" kstp="197" mode="normal"


end timestep


start timestep kper="2" kstp="198" mode="normal"


end timestep


start timestep kper="2" kstp="199" mode="normal"


end timestep


start timestep kper="2" kstp="200" mode="normal"


end timestep


start timestep kper="2" kstp="201" mode="normal"


end timestep


start timestep kper="2" kstp="202" mode="normal"


end timestep


start timestep kper="2" kstp="203" mode="normal"


end timestep


start timestep kper="2" kstp="204" mode="normal"


end timestep


start timestep kper="2" kstp="205" mode="normal"


end timestep


start timestep kper="2" kstp="206" mode="normal"


end timestep


start timestep kper="2" kstp="207" mode="normal"


end timestep


start timestep kper="2" kstp="208" mode="normal"


end timestep


start timestep kper="2" kstp="209" mode="normal"


end timestep


start timestep kper="2" kstp="210" mode="normal"


end timestep


start timestep kper="2" kstp="211" mode="normal"


end timestep


start timestep kper="2" kstp="212" mode="normal"


end timestep


start timestep kper="2" kstp="213" mode="normal"


end timestep


start timestep kper="2" kstp="214" mode="normal"


end timestep


start timestep kper="2" kstp="215" mode="normal"


end timestep


start timestep kper="2" kstp="216" mode="normal"


end timestep


start timestep kper="2" kstp="217" mode="normal"


end timestep


start timestep kper="2" kstp="218" mode="normal"


end timestep


start timestep kper="2" kstp="219" mode="normal"


end timestep


start timestep kper="2" kstp="220" mode="normal"


end timestep


start timestep kper="2" kstp="221" mode="normal"


end timestep


start timestep kper="2" kstp="222" mode="normal"


end timestep


start timestep kper="2" kstp="223" mode="normal"


end timestep


start timestep kper="2" kstp="224" mode="normal"


end timestep


start timestep kper="2" kstp="225" mode="normal"


end timestep


start timestep kper="2" kstp="226" mode="normal"


end timestep


start timestep kper="2" kstp="227" mode="normal"


end timestep


start timestep kper="2" kstp="228" mode="normal"


end timestep


start timestep kper="2" kstp="229" mode="normal"


end timestep


start timestep kper="2" kstp="230" mode="normal"


end timestep


start timestep kper="2" kstp="231" mode="normal"


end timestep


start timestep kper="2" kstp="232" mode="normal"


end timestep


start timestep kper="2" kstp="233" mode="normal"


end timestep


start timestep kper="2" kstp="234" mode="normal"


end timestep


start timestep kper="2" kstp="235" mode="normal"


end timestep


start timestep kper="2" kstp="236" mode="normal"


end timestep


start timestep kper="2" kstp="237" mode="normal"


end timestep


start timestep kper="2" kstp="238" mode="normal"


end timestep


start timestep kper="2" kstp="239" mode="normal"


end timestep


start timestep kper="2" kstp="240" mode="normal"


end timestep


start timestep kper="2" kstp="241" mode="normal"


end timestep


start timestep kper="2" kstp="242" mode="normal"


end timestep


start timestep kper="2" kstp="243" mode="normal"


end timestep


start timestep kper="2" kstp="244" mode="normal"


end timestep


start timestep kper="2" kstp="245" mode="normal"


end timestep


start timestep kper="2" kstp="246" mode="normal"


end timestep


start timestep kper="2" kstp="247" mode="normal"


end timestep


start timestep kper="2" kstp="248" mode="normal"


end timestep


start timestep kper="2" kstp="249" mode="normal"


end timestep


start timestep kper="2" kstp="250" mode="normal"


end timestep


start timestep kper="2" kstp="251" mode="normal"


end timestep


start timestep kper="2" kstp="252" mode="normal"


end timestep


start timestep kper="2" kstp="253" mode="normal"


end timestep


start timestep kper="2" kstp="254" mode="normal"


end timestep


start timestep kper="2" kstp="255" mode="normal"


end timestep


start timestep kper="2" kstp="256" mode="normal"


end timestep


start timestep kper="2" kstp="257" mode="normal"


end timestep


start timestep kper="2" kstp="258" mode="normal"


end timestep


start timestep kper="2" kstp="259" mode="normal"


end timestep


start timestep kper="2" kstp="260" mode="normal"


end timestep


start timestep kper="2" kstp="261" mode="normal"


end timestep


start timestep kper="2" kstp="262" mode="normal"


end timestep


start timestep kper="2" kstp="263" mode="normal"


end timestep


start timestep kper="2" kstp="264" mode="normal"


end timestep


start timestep kper="2" kstp="265" mode="normal"


end timestep


start timestep kper="2" kstp="266" mode="normal"


end timestep


start timestep kper="2" kstp="267" mode="normal"


end timestep


start timestep kper="2" kstp="268" mode="normal"


end timestep


start timestep kper="2" kstp="269" mode="normal"


end timestep


start timestep kper="2" kstp="270" mode="normal"


end timestep


start timestep kper="2" kstp="271" mode="normal"


end timestep


start timestep kper="2" kstp="272" mode="normal"


end timestep


start timestep kper="2" kstp="273" mode="normal"


end timestep


start timestep kper="2" kstp="274" mode="normal"


end timestep


start timestep kper="2" kstp="275" mode="normal"


end timestep


start timestep kper="2" kstp="276" mode="normal"


end timestep


start timestep kper="2" kstp="277" mode="normal"


end timestep


start timestep kper="2" kstp="278" mode="normal"


end timestep


start timestep kper="2" kstp="279" mode="normal"


end timestep


start timestep kper="2" kstp="280" mode="normal"


end timestep


start timestep kper="2" kstp="281" mode="normal"


end timestep


start timestep kper="2" kstp="282" mode="normal"


end timestep


start timestep kper="2" kstp="283" mode="normal"


end timestep


start timestep kper="2" kstp="284" mode="normal"


end timestep


start timestep kper="2" kstp="285" mode="normal"


end timestep


start timestep kper="2" kstp="286" mode="normal"


end timestep


start timestep kper="2" kstp="287" mode="normal"


end timestep


start timestep kper="2" kstp="288" mode="normal"


end timestep


start timestep kper="2" kstp="289" mode="normal"


end timestep


start timestep kper="2" kstp="290" mode="normal"


end timestep


start timestep kper="2" kstp="291" mode="normal"


end timestep


start timestep kper="2" kstp="292" mode="normal"


end timestep


start timestep kper="2" kstp="293" mode="normal"


end timestep


start timestep kper="2" kstp="294" mode="normal"


end timestep


start timestep kper="2" kstp="295" mode="normal"


end timestep


start timestep kper="2" kstp="296" mode="normal"


end timestep


start timestep kper="2" kstp="297" mode="normal"


end timestep


start timestep kper="2" kstp="298" mode="normal"


end timestep


start timestep kper="2" kstp="299" mode="normal"


end timestep


start timestep kper="2" kstp="300" mode="normal"


end timestep


start timestep kper="2" kstp="301" mode="normal"


end timestep


start timestep kper="2" kstp="302" mode="normal"


end timestep


start timestep kper="2" kstp="303" mode="normal"


end timestep


start timestep kper="2" kstp="304" mode="normal"


end timestep


start timestep kper="2" kstp="305" mode="normal"


end timestep


start timestep kper="2" kstp="306" mode="normal"


end timestep


start timestep kper="2" kstp="307" mode="normal"


end timestep


start timestep kper="2" kstp="308" mode="normal"


end timestep


start timestep kper="2" kstp="309" mode="normal"


end timestep


start timestep kper="2" kstp="310" mode="normal"


end timestep


start timestep kper="2" kstp="311" mode="normal"


end timestep


start timestep kper="2" kstp="312" mode="normal"


end timestep


start timestep kper="2" kstp="313" mode="normal"


end timestep


start timestep kper="2" kstp="314" mode="normal"


end timestep


start timestep kper="2" kstp="315" mode="normal"


end timestep


start timestep kper="2" kstp="316" mode="normal"


end timestep


start timestep kper="2" kstp="317" mode="normal"


end timestep


start timestep kper="2" kstp="318" mode="normal"


end timestep


start timestep kper="2" kstp="319" mode="normal"


end timestep


start timestep kper="2" kstp="320" mode="normal"


end timestep


start timestep kper="2" kstp="321" mode="normal"


end timestep


start timestep kper="2" kstp="322" mode="normal"


end timestep


start timestep kper="2" kstp="323" mode="normal"


end timestep


start timestep kper="2" kstp="324" mode="normal"


end timestep


start timestep kper="2" kstp="325" mode="normal"


end timestep


start timestep kper="2" kstp="326" mode="normal"


end timestep


start timestep kper="2" kstp="327" mode="normal"


end timestep


start timestep kper="2" kstp="328" mode="normal"


end timestep


start timestep kper="2" kstp="329" mode="normal"


end timestep


start timestep kper="2" kstp="330" mode="normal"


end timestep


start timestep kper="2" kstp="331" mode="normal"


end timestep


start timestep kper="2" kstp="332" mode="normal"


end timestep


start timestep kper="2" kstp="333" mode="normal"


end timestep


start timestep kper="2" kstp="334" mode="normal"


end timestep


start timestep kper="2" kstp="335" mode="normal"


end timestep


start timestep kper="2" kstp="336" mode="normal"


end timestep


start timestep kper="2" kstp="337" mode="normal"


end timestep


start timestep kper="2" kstp="338" mode="normal"


end timestep


start timestep kper="2" kstp="339" mode="normal"


end timestep


start timestep kper="2" kstp="340" mode="normal"


end timestep


start timestep kper="2" kstp="341" mode="normal"


end timestep


start timestep kper="2" kstp="342" mode="normal"


end timestep


start timestep kper="2" kstp="343" mode="normal"


end timestep


start timestep kper="2" kstp="344" mode="normal"


end timestep


start timestep kper="2" kstp="345" mode="normal"


end timestep


start timestep kper="2" kstp="346" mode="normal"


end timestep


start timestep kper="2" kstp="347" mode="normal"


end timestep


start timestep kper="2" kstp="348" mode="normal"


end timestep


start timestep kper="2" kstp="349" mode="normal"


end timestep


start timestep kper="2" kstp="350" mode="normal"


end timestep


start timestep kper="2" kstp="351" mode="normal"


end timestep


start timestep kper="2" kstp="352" mode="normal"


end timestep


start timestep kper="2" kstp="353" mode="normal"


end timestep


start timestep kper="2" kstp="354" mode="normal"


end timestep


start timestep kper="2" kstp="355" mode="normal"


end timestep


start timestep kper="2" kstp="356" mode="normal"


end timestep


start timestep kper="2" kstp="357" mode="normal"


end timestep


start timestep kper="2" kstp="358" mode="normal"


end timestep


start timestep kper="2" kstp="359" mode="normal"


end timestep


start timestep kper="2" kstp="360" mode="normal"


end timestep


start timestep kper="2" kstp="361" mode="normal"


end timestep


start timestep kper="2" kstp="362" mode="normal"


end timestep


start timestep kper="2" kstp="363" mode="normal"


end timestep


start timestep kper="2" kstp="364" mode="normal"


end timestep


start timestep kper="2" kstp="365" mode="normal"


end timestep


start timestep kper="2" kstp="366" mode="normal"


end timestep


start timestep kper="2" kstp="367" mode="normal"


end timestep


start timestep kper="2" kstp="368" mode="normal"


end timestep


start timestep kper="2" kstp="369" mode="normal"


end timestep


start timestep kper="2" kstp="370" mode="normal"


end timestep


start timestep kper="2" kstp="371" mode="normal"


end timestep


start timestep kper="2" kstp="372" mode="normal"


end timestep


start timestep kper="2" kstp="373" mode="normal"


end timestep


start timestep kper="2" kstp="374" mode="normal"


end timestep


start timestep kper="2" kstp="375" mode="normal"


end timestep


start timestep kper="2" kstp="376" mode="normal"


end timestep


start timestep kper="2" kstp="377" mode="normal"


end timestep


start timestep kper="2" kstp="378" mode="normal"


end timestep


start timestep kper="2" kstp="379" mode="normal"


end timestep


start timestep kper="2" kstp="380" mode="normal"


end timestep


start timestep kper="2" kstp="381" mode="normal"


end timestep


start timestep kper="2" kstp="382" mode="normal"


end timestep


start timestep kper="2" kstp="383" mode="normal"


end timestep


start timestep kper="2" kstp="384" mode="normal"


end timestep


start timestep kper="2" kstp="385" mode="normal"


end timestep


start timestep kper="2" kstp="386" mode="normal"


end timestep


start timestep kper="2" kstp="387" mode="normal"


end timestep


start timestep kper="2" kstp="388" mode="normal"


end timestep


start timestep kper="2" kstp="389" mode="normal"


end timestep


start timestep kper="2" kstp="390" mode="normal"


end timestep


start timestep kper="2" kstp="391" mode="normal"


end timestep


start timestep kper="2" kstp="392" mode="normal"


end timestep


start timestep kper="2" kstp="393" mode="normal"


end timestep


start timestep kper="2" kstp="394" mode="normal"


end timestep


start timestep kper="2" kstp="395" mode="normal"


end timestep


start timestep kper="2" kstp="396" mode="normal"


end timestep


start timestep kper="2" kstp="397" mode="normal"


end timestep


start timestep kper="2" kstp="398" mode="normal"


end timestep


start timestep kper="2" kstp="399" mode="normal"


end timestep


start timestep kper="2" kstp="400" mode="normal"


end timestep


start timestep kper="2" kstp="401" mode="normal"


end timestep


start timestep kper="2" kstp="402" mode="normal"


end timestep


start timestep kper="2" kstp="403" mode="normal"


end timestep


start timestep kper="2" kstp="404" mode="normal"


end timestep


start timestep kper="2" kstp="405" mode="normal"


end timestep


start timestep kper="2" kstp="406" mode="normal"


end timestep


start timestep kper="2" kstp="407" mode="normal"


end timestep


start timestep kper="2" kstp="408" mode="normal"


end timestep


start timestep kper="2" kstp="409" mode="normal"


end timestep


start timestep kper="2" kstp="410" mode="normal"


end timestep


start timestep kper="2" kstp="411" mode="normal"


end timestep


start timestep kper="2" kstp="412" mode="normal"


end timestep


start timestep kper="2" kstp="413" mode="normal"


end timestep


start timestep kper="2" kstp="414" mode="normal"


end timestep


start timestep kper="2" kstp="415" mode="normal"


end timestep


start timestep kper="2" kstp="416" mode="normal"


end timestep


start timestep kper="2" kstp="417" mode="normal"


end timestep


start timestep kper="2" kstp="418" mode="normal"


end timestep


start timestep kper="2" kstp="419" mode="normal"


end timestep


start timestep kper="2" kstp="420" mode="normal"


end timestep


start timestep kper="2" kstp="421" mode="normal"


end timestep


start timestep kper="2" kstp="422" mode="normal"


end timestep


start timestep kper="2" kstp="423" mode="normal"


end timestep


start timestep kper="2" kstp="424" mode="normal"


end timestep


start timestep kper="2" kstp="425" mode="normal"


end timestep


start timestep kper="2" kstp="426" mode="normal"


end timestep


start timestep kper="2" kstp="427" mode="normal"


end timestep


start timestep kper="2" kstp="428" mode="normal"


end timestep


start timestep kper="2" kstp="429" mode="normal"


end timestep


start timestep kper="2" kstp="430" mode="normal"


end timestep


start timestep kper="2" kstp="431" mode="normal"


end timestep


start timestep kper="2" kstp="432" mode="normal"


end timestep


start timestep kper="2" kstp="433" mode="normal"


end timestep


start timestep kper="2" kstp="434" mode="normal"


end timestep


start timestep kper="2" kstp="435" mode="normal"


end timestep


start timestep kper="2" kstp="436" mode="normal"


end timestep


start timestep kper="2" kstp="437" mode="normal"


end timestep


start timestep kper="2" kstp="438" mode="normal"


end timestep


start timestep kper="2" kstp="439" mode="normal"


end timestep


start timestep kper="2" kstp="440" mode="normal"


end timestep


start timestep kper="2" kstp="441" mode="normal"


end timestep


start timestep kper="2" kstp="442" mode="normal"


end timestep


start timestep kper="2" kstp="443" mode="normal"


end timestep


start timestep kper="2" kstp="444" mode="normal"


end timestep


start timestep kper="2" kstp="445" mode="normal"


end timestep


start timestep kper="2" kstp="446" mode="normal"


end timestep


start timestep kper="2" kstp="447" mode="normal"


end timestep


start timestep kper="2" kstp="448" mode="normal"


end timestep


start timestep kper="2" kstp="449" mode="normal"


end timestep


[...]


start timestep kper="2" kstp="1094" mode="normal"


end timestep


start timestep kper="2" kstp="1095" mode="normal"

 UBDSV1 SAVING  STORAGE-AQUEOUS ON UNIT   1029 AT TIME STEP   1095, STRESS PERIOD      2
 UBDSV1 SAVING     FLOW-JA-FACE ON UNIT   1029 AT TIME STEP   1095, STRESS PERIOD      2
 UBDSV06 SAVING  SOURCE-SINK MIX IN MODEL GWT_P06-MF6      PACKAGE GWT_P06-MF6     CONNECTED TO MODEL GWT_P06-MF6      PACKAGE SSM              ON UNIT   1029 AT TIME STEP   1095, STRESS PERIOD      2
1
  CONCENTRATION IN LAYER   1 AT END OF TIME STEP *** IN STRESS PERIOD    2
  ---------------------------------------------------------------------------

                1               2               3               4               5               6               7               8               9              10
               11              12              13              14              15              16              17              18              19              20
               21              22              23              24              25              26              27              28              29              30
               31
 ................................................................................................................................................................................................................................................................................................................................................................................................................................................................................................................
   1      0.00000       -4.774589E-48   -1.117136E-45    3.204711E-43    2.483042E-40    7.633463E-38    1.620171E-35    2.712237E-33    3.651767E-31    3.844444E-29
         3.047886E-27    1.754741E-25    7.044605E-24    1.859690E-22    2.845787E-21    1.936772E-20    2.845787E-21    1.859690E-22    7.044606E-24    1.754742E-25
         3.047889E-27    3.844463E-29    3.651830E-31    2.712382E-33    1.620411E-35    7.636291E-38    2.485382E-40    3.217818E-43   -1.112540E-45   -4.766184E-48
          0.00000    
   2    -4.774589E-48   -6.746510E-46    1.636693E-43    1.595089E-40    5.920085E-38    1.531957E-35    3.164685E-33    5.309759E-31    7.036838E-29    7.128016E-27
         5.366249E-25    2.920703E-23    1.109871E-21    2.788419E-20    4.110603E-19    2.656228E-18    4.110603E-19    2.788419E-20    1.109871E-21    2.920703E-23
         5.366251E-25    7.128025E-27    7.036871E-29    5.309845E-31    3.164847E-33    1.532178E-35    5.922281E-38    1.596639E-40    1.644296E-43   -6.720499E-46
        -4.766015E-48
   3    -1.117136E-45    1.636693E-43    1.301606E-40    4.879791E-38    1.393207E-35    3.324322E-33    6.615431E-31    1.059145E-28    1.318657E-26    1.245015E-24
         8.724537E-23    4.428818E-21    1.574733E-19    3.704917E-18    5.301377E-17    3.397202E-16    5.301377E-17    3.704917E-18    1.574733E-19    4.428818E-21
         8.724537E-23    1.245015E-24    1.318658E-26    1.059149E-28    6.615534E-31    3.324488E-33    1.393408E-35    4.881635E-38    1.302911E-40    1.644417E-43
        -1.112386E-45
   4     3.204711E-43    1.595089E-40    4.879791E-38    1.329569E-35    3.327379E-33    7.344888E-31    1.351145E-28    1.983290E-26    2.258374E-24    1.954396E-22
         1.260382E-20    5.911481E-19    1.947959E-17    4.542471E-16    6.348470E-15    3.906504E-14    6.348470E-15    4.542471E-16    1.947959E-17    5.911481E-19
         1.260382E-20    1.954397E-22    2.258374E-24    1.983292E-26    1.351151E-28    7.345000E-31    3.327545E-33    1.329764E-35    4.881664E-38    1.596687E-40
         3.218441E-43
   5     2.483042E-40    5.920085E-38    1.393207E-35    3.327379E-33    7.562764E-31    1.509864E-28    2.496526E-26    3.295809E-24    3.389887E-22    2.663537E-20
         1.570349E-18    6.753192E-17    2.209249E-15    4.871757E-14    6.465350E-13    3.798252E-12    6.465350E-13    4.871757E-14    2.209249E-15    6.753192E-17
         1.570349E-18    2.663537E-20    3.389887E-22    3.295809E-24    2.496529E-26    1.509871E-28    7.562879E-31    3.327548E-33    1.393415E-35    5.922388E-38
         2.485531E-40
   6     7.633463E-38    1.531957E-35    3.324322E-33    7.344888E-31    1.509864E-28    2.688108E-26    3.956357E-24    4.664746E-22    4.297834E-20    3.025721E-18
         1.635663E-16    6.924164E-15    2.102619E-13    4.336505E-12    5.431852E-11    3.029425E-10    5.431852E-11    4.336505E-12    2.102619E-13    6.924164E-15
         1.635663E-16    3.025721E-18    4.297834E-20    4.664746E-22    3.956358E-24    2.688111E-26    1.509871E-28    7.345004E-31    3.324497E-33    1.532193E-35
         7.636525E-38
   7     1.620171E-35    3.164685E-33    6.615431E-31    1.351145E-28    2.496526E-26    3.956357E-24    5.178014E-22    5.419753E-20    4.397889E-18    2.885201E-16
         1.500666E-14    5.810426E-13    1.622875E-11    3.102823E-10    3.639995E-09    1.914248E-08    3.639995E-09    3.102823E-10    1.622875E-11    5.810426E-13
         1.500666E-14    2.885201E-16    4.397889E-18    5.419754E-20    5.178014E-22    3.956358E-24    2.496529E-26    1.351151E-28    6.615542E-31    3.164862E-33
         1.620436E-35
   8     2.712237E-33    5.309759E-31    1.059145E-28    1.983290E-26    3.295809E-24    4.664746E-22    5.419753E-20    4.967124E-18    3.806882E-16    2.348285E-14
         1.104520E-12    3.871946E-11    9.826038E-10    1.720586E-08    1.871032E-07    9.200042E-07    1.871032E-07    1.720586E-08    9.826038E-10    3.871946E-11
         1.104520E-12    2.348285E-14    3.806882E-16    4.967124E-18    5.419754E-20    4.664746E-22    3.295810E-24    1.983293E-26    1.059150E-28    5.309855E-31
         2.712402E-33
   9     3.651767E-31    7.036838E-29    1.318657E-26    2.258374E-24    3.389887E-22    4.297834E-20    4.397889E-18    3.806882E-16    2.719244E-14    1.507380E-12
         6.345273E-11    1.984444E-09    4.496947E-08    7.087639E-07    7.042070E-06    3.201871E-05    7.042070E-06    7.087639E-07    4.496947E-08    1.984444E-09
         6.345273E-11    1.507380E-12    2.719244E-14    3.806882E-16    4.397889E-18    4.297834E-20    3.389887E-22    2.258374E-24    1.318659E-26    7.036876E-29
         3.651840E-31
  10     3.844444E-29    7.128016E-27    1.245015E-24    1.954396E-22    2.663537E-20    3.025721E-18    2.885201E-16    2.348285E-14    1.507380E-12    7.448163E-11
         2.766476E-09    7.563792E-08    1.492813E-06    2.064165E-05    1.834676E-04    7.596842E-04    1.834676E-04    2.064165E-05    1.492813E-06    7.563792E-08
         2.766476E-09    7.448163E-11    1.507380E-12    2.348285E-14    2.885201E-16    3.025721E-18    2.663537E-20    1.954397E-22    1.245015E-24    7.128026E-27
         3.844467E-29
  11     3.047886E-27    5.366249E-25    8.724537E-23    1.260382E-20    1.570349E-18    1.635663E-16    1.500666E-14    1.104520E-12    6.345273E-11    2.766476E-09
         8.912697E-08    2.074433E-06    3.441773E-05    4.018112E-04    3.094570E-03    1.141606E-02    3.094570E-03    4.018112E-04    3.441773E-05    2.074433E-06
         8.912697E-08    2.766476E-09    6.345273E-11    1.104520E-12    1.500666E-14    1.635663E-16    1.570349E-18    1.260382E-20    8.724538E-23    5.366251E-25
         3.047891E-27
  12     1.754741E-25    2.920703E-23    4.428818E-21    5.911481E-19    6.753192E-17    6.924164E-15    5.810426E-13    3.871946E-11    1.984444E-09    7.563792E-08
         2.074433E-06    3.986093E-05    5.304962E-04    4.943097E-03    3.143848E-02    0.100053        3.143848E-02    4.943097E-03    5.304962E-04    3.986093E-05
         2.074433E-06    7.563792E-08    1.984444E-09    3.871946E-11    5.810426E-13    6.924164E-15    6.753192E-17    5.911481E-19    4.428818E-21    2.920703E-23
         1.754742E-25
  13     7.044605E-24    1.109871E-21    1.574733E-19    1.947959E-17    2.209249E-15    2.102619E-13    1.622875E-11    9.826038E-10    4.496947E-08    1.492813E-06
         3.441773E-05    5.304962E-04    5.388209E-03    3.719762E-02    0.182399        0.478494        0.182399        3.719762E-02    5.388209E-03    5.304962E-04
         3.441773E-05    1.492813E-06    4.496947E-08    9.826038E-10    1.622875E-11    2.102619E-13    2.209249E-15    1.947959E-17    1.574733E-19    1.109871E-21
         7.044606E-24
  14     1.859690E-22    2.788419E-20    3.704917E-18    4.542471E-16    4.871757E-14    4.336505E-12    3.102823E-10    1.720586E-08    7.087639E-07    2.064165E-05
         4.018112E-04    4.943097E-03    3.719762E-02    0.178260        0.617234         1.25558        0.617234        0.178260        3.719762E-02    4.943097E-03
         4.018112E-04    2.064165E-05    7.087639E-07    1.720586E-08    3.102823E-10    4.336505E-12    4.871757E-14    4.542471E-16    3.704917E-18    2.788419E-20
         1.859690E-22
  15     2.845787E-21    4.110603E-19    5.301377E-17    6.348470E-15    6.465350E-13    5.431852E-11    3.639995E-09    1.871032E-07    7.042070E-06    1.834676E-04
         3.094570E-03    3.143848E-02    0.182399        0.617234         1.51731         2.03698         1.51731        0.617234        0.182399        3.143848E-02
         3.094570E-03    1.834676E-04    7.042070E-06    1.871032E-07    3.639995E-09    5.431852E-11    6.465350E-13    6.348470E-15    5.301377E-17    4.110603E-19
         2.845787E-21
  16     1.936772E-20    2.656228E-18    3.397202E-16    3.906504E-14    3.798252E-12    3.029425E-10    1.914248E-08    9.200042E-07    3.201871E-05    7.596842E-04
         1.141606E-02    0.100053        0.478494         1.25558         2.03698         2.58899         2.03698         1.25558        0.478494        0.100053    
         1.141606E-02    7.596842E-04    3.201871E-05    9.200042E-07    1.914248E-08    3.029425E-10    3.798252E-12    3.906504E-14    3.397202E-16    2.656228E-18
         1.936772E-20
  17     2.845787E-21    4.110603E-19    5.301377E-17    6.348470E-15    6.465350E-13    5.431852E-11    3.639995E-09    1.871032E-07    7.042070E-06    1.834676E-04
         3.094570E-03    3.143848E-02    0.182399        0.617234         1.51731         2.03698         1.51731        0.617234        0.182399        3.143848E-02
         3.094570E-03    1.834676E-04    7.042070E-06    1.871032E-07    3.639995E-09    5.431852E-11    6.465350E-13    6.348470E-15    5.301377E-17    4.110603E-19
         2.845787E-21
  18     1.859690E-22    2.788419E-20    3.704917E-18    4.542471E-16    4.871757E-14    4.336505E-12    3.102823E-10    1.720586E-08    7.087639E-07    2.064165E-05
         4.018112E-04    4.943097E-03    3.719762E-02    0.178260        0.617234         1.25558        0.617234        0.178260        3.719762E-02    4.943097E-03
         4.018112E-04    2.064165E-05    7.087639E-07    1.720586E-08    3.102823E-10    4.336505E-12    4.871757E-14    4.542471E-16    3.704917E-18    2.788419E-20
         1.859690E-22
  19     7.044606E-24    1.109871E-21    1.574733E-19    1.947959E-17    2.209249E-15    2.102619E-13    1.622875E-11    9.826038E-10    4.496947E-08    1.492813E-06
         3.441773E-05    5.304962E-04    5.388209E-03    3.719762E-02    0.182399        0.478494        0.182399        3.719762E-02    5.388209E-03    5.304962E-04
         3.441773E-05    1.492813E-06    4.496947E-08    9.826038E-10    1.622875E-11    2.102619E-13    2.209249E-15    1.947959E-17    1.574733E-19    1.109871E-21
         7.044605E-24
  20     1.754742E-25    2.920703E-23    4.428818E-21    5.911481E-19    6.753192E-17    6.924164E-15    5.810426E-13    3.871946E-11    1.984444E-09    7.563792E-08
         2.074433E-06    3.986093E-05    5.304962E-04    4.943097E-03    3.143848E-02    0.100053        3.143848E-02    4.943097E-03    5.304962E-04    3.986093E-05
         2.074433E-06    7.563792E-08    1.984444E-09    3.871946E-11    5.810426E-13    6.924164E-15    6.753192E-17    5.911481E-19    4.428818E-21    2.920703E-23
         1.754741E-25
  21     3.047889E-27    5.366251E-25    8.724537E-23    1.260382E-20    1.570349E-18    1.635663E-16    1.500666E-14    1.104520E-12    6.345273E-11    2.766476E-09
         8.912697E-08    2.074433E-06    3.441773E-05    4.018112E-04    3.094570E-03    1.141606E-02    3.094570E-03    4.018112E-04    3.441773E-05    2.074433E-06
         8.912697E-08    2.766476E-09    6.345273E-11    1.104520E-12    1.500666E-14    1.635663E-16    1.570349E-18    1.260382E-20    8.724537E-23    5.366249E-25
         3.047886E-27
  22     3.844463E-29    7.128025E-27    1.245015E-24    1.954397E-22    2.663537E-20    3.025721E-18    2.885201E-16    2.348285E-14    1.507380E-12    7.448163E-11
         2.766476E-09    7.563792E-08    1.492813E-06    2.064165E-05    1.834676E-04    7.596842E-04    1.834676E-04    2.064165E-05    1.492813E-06    7.563792E-08
         2.766476E-09    7.448163E-11    1.507380E-12    2.348285E-14    2.885201E-16    3.025721E-18    2.663537E-20    1.954396E-22    1.245015E-24    7.128016E-27
         3.844444E-29
  23     3.651830E-31    7.036871E-29    1.318658E-26    2.258374E-24    3.389887E-22    4.297834E-20    4.397889E-18    3.806882E-16    2.719244E-14    1.507380E-12
         6.345273E-11    1.984444E-09    4.496947E-08    7.087639E-07    7.042070E-06    3.201871E-05    7.042070E-06    7.087639E-07    4.496947E-08    1.984444E-09
         6.345273E-11    1.507380E-12    2.719244E-14    3.806882E-16    4.397889E-18    4.297834E-20    3.389887E-22    2.258374E-24    1.318657E-26    7.036838E-29
         3.651767E-31
  24     2.712382E-33    5.309845E-31    1.059149E-28    1.983292E-26    3.295809E-24    4.664746E-22    5.419754E-20    4.967124E-18    3.806882E-16    2.348285E-14
         1.104520E-12    3.871946E-11    9.826038E-10    1.720586E-08    1.871032E-07    9.200042E-07    1.871032E-07    1.720586E-08    9.826038E-10    3.871946E-11
         1.104520E-12    2.348285E-14    3.806882E-16    4.967124E-18    5.419753E-20    4.664746E-22    3.295809E-24    1.983290E-26    1.059145E-28    5.309759E-31
         2.712237E-33
  25     1.620411E-35    3.164847E-33    6.615534E-31    1.351151E-28    2.496529E-26    3.956358E-24    5.178014E-22    5.419754E-20    4.397889E-18    2.885201E-16
         1.500666E-14    5.810426E-13    1.622875E-11    3.102823E-10    3.639995E-09    1.914248E-08    3.639995E-09    3.102823E-10    1.622875E-11    5.810426E-13
         1.500666E-14    2.885201E-16    4.397889E-18    5.419753E-20    5.178014E-22    3.956357E-24    2.496526E-26    1.351145E-28    6.615431E-31    3.164685E-33
         1.620171E-35
  26     7.636291E-38    1.532178E-35    3.324488E-33    7.345000E-31    1.509871E-28    2.688111E-26    3.956358E-24    4.664746E-22    4.297834E-20    3.025721E-18
         1.635663E-16    6.924164E-15    2.102619E-13    4.336505E-12    5.431852E-11    3.029425E-10    5.431852E-11    4.336505E-12    2.102619E-13    6.924164E-15
         1.635663E-16    3.025721E-18    4.297834E-20    4.664746E-22    3.956357E-24    2.688108E-26    1.509864E-28    7.344888E-31    3.324322E-33    1.531957E-35
         7.633463E-38
  27     2.485382E-40    5.922281E-38    1.393408E-35    3.327545E-33    7.562879E-31    1.509871E-28    2.496529E-26    3.295810E-24    3.389887E-22    2.663537E-20
         1.570349E-18    6.753192E-17    2.209249E-15    4.871757E-14    6.465350E-13    3.798252E-12    6.465350E-13    4.871757E-14    2.209249E-15    6.753192E-17
         1.570349E-18    2.663537E-20    3.389887E-22    3.295809E-24    2.496526E-26    1.509864E-28    7.562764E-31    3.327379E-33    1.393207E-35    5.920085E-38
         2.483042E-40
  28     3.217818E-43    1.596639E-40    4.881635E-38    1.329764E-35    3.327548E-33    7.345004E-31    1.351151E-28    1.983293E-26    2.258374E-24    1.954397E-22
         1.260382E-20    5.911481E-19    1.947959E-17    4.542471E-16    6.348470E-15    3.906504E-14    6.348470E-15    4.542471E-16    1.947959E-17    5.911481E-19
         1.260382E-20    1.954396E-22    2.258374E-24    1.983290E-26    1.351145E-28    7.344888E-31    3.327379E-33    1.329569E-35    4.879791E-38    1.595089E-40
         3.204711E-43
  29    -1.112540E-45    1.644296E-43    1.302911E-40    4.881664E-38    1.393415E-35    3.324497E-33    6.615542E-31    1.059150E-28    1.318659E-26    1.245015E-24
         8.724538E-23    4.428818E-21    1.574733E-19    3.704917E-18    5.301377E-17    3.397202E-16    5.301377E-17    3.704917E-18    1.574733E-19    4.428818E-21
         8.724537E-23    1.245015E-24    1.318657E-26    1.059145E-28    6.615431E-31    3.324322E-33    1.393207E-35    4.879791E-38    1.301606E-40    1.636693E-43
        -1.117136E-45
  30    -4.766184E-48   -6.720499E-46    1.644417E-43    1.596687E-40    5.922388E-38    1.532193E-35    3.164862E-33    5.309855E-31    7.036876E-29    7.128026E-27
         5.366251E-25    2.920703E-23    1.109871E-21    2.788419E-20    4.110603E-19    2.656228E-18    4.110603E-19    2.788419E-20    1.109871E-21    2.920703E-23
         5.366249E-25    7.128016E-27    7.036838E-29    5.309759E-31    3.164685E-33    1.531957E-35    5.920085E-38    1.595089E-40    1.636693E-43   -6.746510E-46
        -4.774589E-48
  31      0.00000       -4.766015E-48   -1.112386E-45    3.218441E-43    2.485531E-40    7.636525E-38    1.620436E-35    2.712402E-33    3.651840E-31    3.844467E-29
         3.047891E-27    1.754742E-25    7.044606E-24    1.859690E-22    2.845787E-21    1.936772E-20    2.845787E-21    1.859690E-22    7.044605E-24    1.754741E-25
         3.047886E-27    3.844444E-29    3.651767E-31    2.712237E-33    1.620171E-35    7.633463E-38    2.483042E-40    3.204711E-43   -1.117136E-45   -4.774589E-48
          0.00000    

 CONCENTRATION WILL BE SAVED ON UNIT 1030 AT END OF TIME STEP 1095, STRESS PERIOD    2


  MASS BUDGET FOR ENTIRE MODEL AT END OF TIME STEP 1095, STRESS PERIOD   2
  ---------------------------------------------------------------------------------------------------

     CUMULATIVE MASS      M       RATES FOR THIS TIME STEP      M/T          PACKAGE NAME    
     ------------------                 ------------------------                     ----------------

           IN:                                      IN:
           ---                                      ---
     STORAGE-AQUEOUS =  7708545502.1174       STORAGE-AQUEOUS =      223689.9035     MST                              
                 WEL =  7884000000.0000                   WEL =           0.0000     SSM_WEL-1                        
                 CHD =           0.0000                   CHD =           0.0000     SSM_CHD-1                        

            TOTAL IN = 15592545502.1174              TOTAL IN =      223689.9035

          OUT:                                     OUT:
          ----                                     ----
     STORAGE-AQUEOUS =  7889680336.5959       STORAGE-AQUEOUS =           0.9239     MST                              
                 WEL =  7702865165.5215                   WEL =      223688.9796     SSM_WEL-1                        
                 CHD =       7.3342E-20                   CHD =           0.0000     SSM_CHD-1                        

           TOTAL OUT = 15592545502.1174             TOTAL OUT =      223689.9035

            IN - OUT =       2.6703E-05              IN - OUT =      -1.4552E-10

 PERCENT DISCREPANCY =           0.00     PERCENT DISCREPANCY =          -0.00




         TIME SUMMARY AT END OF TIME STEP 1095 IN STRESS PERIOD    2
                    SECONDS     MINUTES      HOURS       DAYS        YEARS
                    -----------------------------------------------------------
   TIME STEP LENGTH 2.16000E+05  3600.0      60.000      2.5000     6.84463E-03
 STRESS PERIOD TIME 2.36520E+08 3.94200E+06  65700.      2737.5      7.4949    
         TOTAL TIME 3.15360E+08 5.25600E+06  87600.      3650.0      9.9932    


end timestep

