                                   MODFLOW 6
                U.S. GEOLOGICAL SURVEY MODULAR HYDROLOGIC MODEL
                            VERSION 6.6.1 02/10/2025

   MODFLOW 6 compiled Feb 14 2025 13:40:10 with Intel(R) Fortran Intel(R) 64
   Compiler Classic for applications running on Intel(R) 64, Version 2021.7.0
                             Build 20220726_000000

This software has been approved for release by the U.S. Geological 
Survey (USGS). Although the software has been subjected to rigorous 
review, the USGS reserves the right to update the software as needed 
pursuant to further analysis and review. No warranty, expressed or 
implied, is made by the USGS or the U.S. Government as to the 
functionality of the software and related material nor shall the 
fact of release constitute any such warranty. Furthermore, the 
software is released on condition that neither the USGS nor the U.S. 
Government shall be held liable for any damages resulting from its 
authorized or unauthorized use. Also refer to the USGS Water 
Resources Software User Rights Notice for complete use, copyright, 
and distribution information.


As a work of the United States Government, this USGS product is 
in the public domain within the United States. You can copy, 
modify, distribute, and perform the work, even for commercial 
purposes, all without asking permission. Additionally, USGS 
waives copyright and related rights in the work worldwide 
through CC0 1.0 Universal Public Domain Dedication 
(https://creativecommons.org/publicdomain/zero/1.0/).

The following GNU Lesser General Public License (LGPL) libraries
are used in this USGS product:

    SPARSKIT version 2.0
      ilut, luson, and qsplit 
      (https://www-users.cse.umn.edu/~saad/software/SPARSKIT/)

    RCM - Reverse Cuthill McKee Ordering
      (https://people.math.sc.edu/Burkardt/f_src/rcm/rcm.html)

    BLAS - Basic Linear Algebra Subprograms Level 1
      (https://people.math.sc.edu/Burkardt/f_src/blas1_d/blas1_d.html)

    SPARSEKIT - Sparse Matrix Utility Package
      amux, dperm, dvperm, rperm, and cperm
      (https://people.sc.fsu.edu/~jburkardt/f77_src/sparsekit/sparsekit.html)

The following BSD-3 License libraries are used in this USGS product:

    Modern Fortran DAG Library
      Copyright (c) 2018, Jacob Williams
      All rights reserved.
      (https://github.com/jacobwilliams/daglib)

MODFLOW 6 compiler options: /O2 /heap-arrays:0 /fpe:0 /traceback /nologo /fpp
/c /module:win64\mod_mf6\ /object:win64\obj_mf6\

System command used to initiate simulation:
C:\Users\gross.DESKTOP-AIRQM2M\anaconda3\Scripts\mf6.exe

MODFLOW was compiled using uniform precision.

Real Variables
  KIND: 8
  TINY (smallest non-zero value):    2.225074-308
  HUGE (largest value):    1.797693+308
  PRECISION: 15
  SIZE IN BITS: 64

Integer Variables
  KIND: 4
  HUGE (largest value): 2147483647
  SIZE IN BITS: 32

Long Integer Variables
  KIND: 8
  HUGE (largest value): 9223372036854775807
  SIZE IN BITS: 64

Logical Variables
  KIND: 4
  SIZE IN BITS: 32
 

 OPENED mfsim.nam
 FILE TYPE:NAM6               UNIT 1001   STATUS:OLD                 
 FORMAT:FORMATTED              ACCESS:SEQUENTIAL          
 ACTION:READ                

 # File generated by Flopy version 3.9.1 on 06/27/2025 at 16:42:49.

 OPENED ex-gwf-csub-p03a.tdis
 FILE TYPE:TDIS6              UNIT 1002   STATUS:OLD                 
 FORMAT:FORMATTED              ACCESS:SEQUENTIAL          
 ACTION:READ                

 # File generated by Flopy version 3.9.1 on 06/27/2025 at 16:42:49.

 OPENED ex-gwf-csub-p03a.nam
 FILE TYPE:GWF6               UNIT 1003   STATUS:OLD                 
 FORMAT:FORMATTED              ACCESS:SEQUENTIAL          
 ACTION:READ                

 # File generated by Flopy version 3.9.1 on 06/27/2025 at 16:42:49.

 OPENED ex-gwf-csub-p03a.dis
 FILE TYPE:DIS6               UNIT 1004   STATUS:OLD                 
 FORMAT:FORMATTED              ACCESS:SEQUENTIAL          
 ACTION:READ                

 # File generated by Flopy version 3.9.1 on 06/27/2025 at 16:42:49.

 OPENED ex-gwf-csub-p03a.npf
 FILE TYPE:NPF6               UNIT 1005   STATUS:OLD                 
 FORMAT:FORMATTED              ACCESS:SEQUENTIAL          
 ACTION:READ                

 # File generated by Flopy version 3.9.1 on 06/27/2025 at 16:42:49.

 OPENED ex-gwf-csub-p03a.sto
 FILE TYPE:STO6               UNIT 1006   STATUS:OLD                 
 FORMAT:FORMATTED              ACCESS:SEQUENTIAL          
 ACTION:READ                

 # File generated by Flopy version 3.9.1 on 06/27/2025 at 16:42:49.

 OPENED ex-gwf-csub-p03a.ic
 FILE TYPE:IC6                UNIT 1007   STATUS:OLD                 
 FORMAT:FORMATTED              ACCESS:SEQUENTIAL          
 ACTION:READ                

 # File generated by Flopy version 3.9.1 on 06/27/2025 at 16:42:49.

 OPENED ex-gwf-csub-p03a.oc
 FILE TYPE:OC6       UNIT 1008   STATUS:OLD                 
 FORMAT:FORMATTED              ACCESS:SEQUENTIAL          
 ACTION:READ                


 OPENED ex-gwf-csub-p03a.csub.obs
 FILE TYPE:OBS6      UNIT 1009   STATUS:OLD                 
 FORMAT:FORMATTED              ACCESS:SEQUENTIAL          
 ACTION:READ                


 OPENED ex-gwf-csub-p03a.chd
 FILE TYPE:CHD6               UNIT 1010   STATUS:OLD                 
 FORMAT:FORMATTED              ACCESS:SEQUENTIAL          
 ACTION:READ                

 # File generated by Flopy version 3.9.1 on 06/27/2025 at 16:42:49.
 # File generated by Flopy version 3.9.1 on 06/27/2025 at 16:42:49.

 OPENED ex-gwf-csub-p03a.csub
 FILE TYPE:CSUB6     UNIT 1013   STATUS:OLD                 
 FORMAT:FORMATTED              ACCESS:SEQUENTIAL          
 ACTION:READ                


 READING SIMULATION OPTIONS
    MAXIMUM NUMBER OF ERRORS THAT WILL BE STORED IS 1000
 END OF SIMULATION OPTIONS

 READING SIMULATION TIMING

 TDIS -- TEMPORAL DISCRETIZATION PACKAGE,
 VERSION 1 : 11/13/2014 - INPUT READ FROM MEMPATH: __INPUT__/SIM/TDIS                                
 PROCESSING TDIS OPTIONS
    SIMULATION TIME UNIT IS DAYS
 END OF TDIS OPTIONS
 PROCESSING TDIS DIMENSIONS
  353 STRESS PERIOD(S) IN SIMULATION
 END OF TDIS DIMENSIONS
 PROCESSING TDIS PERIODDATA


 STRESS PERIOD     LENGTH       TIME STEPS     MULTIPLIER FOR DELT
 ----------------------------------------------------------------------------
        1         365.2500         12                    1.000
        2         365.2500         12                    1.000
        3         365.2500         12                    1.000
        4         365.2500         12                    1.000
        5         365.2500         12                    1.000
        6         365.2500         12                    1.000
        7         365.2500         12                    1.000
        8         365.2500         12                    1.000
        9         365.2500         12                    1.000
       10         365.2500         12                    1.000
       11         365.2500         12                    1.000
       12         365.2500         12                    1.000
       13         365.2500         12                    1.000
       14         365.2500         12                    1.000
       15         365.2500         12                    1.000
       16         365.2500         12                    1.000
       17         365.2500         12                    1.000
       18         365.2500         12                    1.000
       19         365.2500         12                    1.000
       20         365.2500         12                    1.000
       21         365.2500         12                    1.000
       22         365.2500         12                    1.000
       23         365.2500         12                    1.000
       24         365.2500         12                    1.000
       25         365.2500         12                    1.000
       26         365.2500         12                    1.000
       27         365.2500         12                    1.000
       28         365.2500         12                    1.000
       29         365.2500         12                    1.000
       30         365.2500         12                    1.000
       31         365.2500         12                    1.000
       32         365.2500         12                    1.000
       33         365.2500         12                    1.000
       34         365.2500         12                    1.000
       35         365.2500         12                    1.000
       36         365.2500         12                    1.000
       37         365.2500         12                    1.000
       38         365.2500         12                    1.000
       39         365.2500         12                    1.000
       40         365.2500         12                    1.000
       41         365.2500         12                    1.000
       42         365.2500         12                    1.000
       43         365.2500         12                    1.000
       44         365.2500         12                    1.000
       45         365.2500         12                    1.000
       46         365.2500         12                    1.000
       47         365.2500         12                    1.000
       48         365.2500         12                    1.000
       49         365.2500         12                    1.000
       50         365.2500         12                    1.000
       51         365.2500         12                    1.000
       52         365.2500         12                    1.000
       53         365.2500         12                    1.000
       54         365.2500         12                    1.000
       55         365.2500         12                    1.000
       56         365.2500         12                    1.000
       57         365.2500         12                    1.000
       58         365.2500         12                    1.000
       59         365.2500         12                    1.000
       60         365.2500         12                    1.000
       61         365.2500         12                    1.000
       62         365.2500         12                    1.000
       63         365.2500         12                    1.000
       64         365.2500         12                    1.000
       65         365.2500         12                    1.000
       66         365.2500         12                    1.000
       67         365.2500         12                    1.000
       68         365.2500         12                    1.000
       69         365.2500         12                    1.000
       70         365.2500         12                    1.000
       71         365.2500         12                    1.000
       72         365.2500         12                    1.000
       73         365.2500         12                    1.000
       74         365.2500         12                    1.000
       75         365.2500         12                    1.000
       76         365.2500         12                    1.000
       77         365.2500         12                    1.000
       78         365.2500         12                    1.000
       79         365.2500         12                    1.000
       80         365.2500         12                    1.000
       81         365.2500         12                    1.000
       82         365.2500         12                    1.000
       83         22.00000         22                    1.000
       84         22.00000         22                    1.000
       85         22.00000         22                    1.000
       86         22.00000         22                    1.000
       87         22.00000         22                    1.000
       88         22.00000         22                    1.000
       89         22.00000         22                    1.000
       90         22.00000         22                    1.000
       91         22.00000         22                    1.000
       92         22.00000         22                    1.000
       93         22.00000         22                    1.000
       94         22.00000         22                    1.000
       95         22.00000         22                    1.000
       96         22.00000         22                    1.000
       97         22.00000         22                    1.000
       98         22.00000         22                    1.000
       99         22.00000         22                    1.000
      100         22.00000         22                    1.000
      101         22.00000         22                    1.000
      102         22.00000         22                    1.000
      103         22.00000         22                    1.000
      104         22.00000         22                    1.000
      105         22.00000         22                    1.000
      106         22.00000         22                    1.000
      107         22.00000         22                    1.000
      108         22.00000         22                    1.000
      109         22.00000         22                    1.000
      110         22.00000         22                    1.000
      111         22.00000         22                    1.000
      112         22.00000         22                    1.000
      113         22.00000         22                    1.000
      114         22.00000         22                    1.000
      115         22.00000         22                    1.000
      116         22.00000         22                    1.000
      117         22.00000         22                    1.000
      118         22.00000         22                    1.000
      119         22.00000         22                    1.000
      120         22.00000         22                    1.000
      121         22.00000         22                    1.000
      122         22.00000         22                    1.000
      123         22.00000         22                    1.000
      124         22.00000         22                    1.000
      125         22.00000         22                    1.000
      126         22.00000         22                    1.000
      127         22.00000         22                    1.000
      128         22.00000         22                    1.000
      129         22.00000         22                    1.000
      130         22.00000         22                    1.000
      131         22.00000         22                    1.000
      132         22.00000         22                    1.000
      133         22.00000         22                    1.000
      134         22.00000         22                    1.000
      135         22.00000         22                    1.000
      136         22.00000         22                    1.000
      137         22.00000         22                    1.000
      138         22.00000         22                    1.000
      139         22.00000         22                    1.000
      140         22.00000         22                    1.000
      141         22.00000         22                    1.000
      142         22.00000         22                    1.000
      143         22.00000         22                    1.000
      144         22.00000         22                    1.000
      145         22.00000         22                    1.000
      146         22.00000         22                    1.000
      147         22.00000         22                    1.000
      148         22.00000         22                    1.000
      149         22.00000         22                    1.000
      150         22.00000         22                    1.000
      151         22.00000         22                    1.000
      152         22.00000         22                    1.000
      153         22.00000         22                    1.000
      154         22.00000         22                    1.000
      155         22.00000         22                    1.000
      156         22.00000         22                    1.000
      157         22.00000         22                    1.000
      158         22.00000         22                    1.000
      159         22.00000         22                    1.000
      160         22.00000         22                    1.000
      161         22.00000         22                    1.000
      162         22.00000         22                    1.000
      163         22.00000         22                    1.000
      164         22.00000         22                    1.000
      165         22.00000         22                    1.000
      166         22.00000         22                    1.000
      167         22.00000         22                    1.000
      168         22.00000         22                    1.000
      169         22.00000         22                    1.000
      170         22.00000         22                    1.000
      171         22.00000         22                    1.000
      172         22.00000         22                    1.000
      173         22.00000         22                    1.000
      174         22.00000         22                    1.000
      175         22.00000         22                    1.000
      176         22.00000         22                    1.000
      177         22.00000         22                    1.000
      178         22.00000         22                    1.000
      179         22.00000         22                    1.000
      180         22.00000         22                    1.000
      181         22.00000         22                    1.000
      182         22.00000         22                    1.000
      183         22.00000         22                    1.000
      184         22.00000         22                    1.000
      185         22.00000         22                    1.000
      186         22.00000         22                    1.000
      187         22.00000         22                    1.000
      188         22.00000         22                    1.000
      189         22.00000         22                    1.000
      190         22.00000         22                    1.000
      191         22.00000         22                    1.000
      192         22.00000         22                    1.000
      193         22.00000         22                    1.000
      194         22.00000         22                    1.000
      195         22.00000         22                    1.000
      196         22.00000         22                    1.000
      197         22.00000         22                    1.000
      198         22.00000         22                    1.000
      199         22.00000         22                    1.000
      200         22.00000         22                    1.000
      201         22.00000         22                    1.000
      202         22.00000         22                    1.000
      203         22.00000         22                    1.000
      204         22.00000         22                    1.000
      205         22.00000         22                    1.000
      206         22.00000         22                    1.000
      207         22.00000         22                    1.000
      208         22.00000         22                    1.000
      209         22.00000         22                    1.000
      210         22.00000         22                    1.000
      211         22.00000         22                    1.000
      212         22.00000         22                    1.000
      213         22.00000         22                    1.000
      214         22.00000         22                    1.000
      215         22.00000         22                    1.000
      216         22.00000         22                    1.000
      217         22.00000         22                    1.000
      218         22.00000         22                    1.000
      219         22.00000         22                    1.000
      220         22.00000         22                    1.000
      221         22.00000         22                    1.000
      222         22.00000         22                    1.000
      223         22.00000         22                    1.000
      224         22.00000         22                    1.000
      225         22.00000         22                    1.000
      226         22.00000         22                    1.000
      227         22.00000         22                    1.000
      228         22.00000         22                    1.000
      229         22.00000         22                    1.000
      230         22.00000         22                    1.000
      231         22.00000         22                    1.000
      232         22.00000         22                    1.000
      233         22.00000         22                    1.000
      234         22.00000         22                    1.000
      235         22.00000         22                    1.000
      236         22.00000         22                    1.000
      237         22.00000         22                    1.000
      238         22.00000         22                    1.000
      239         22.00000         22                    1.000
      240         22.00000         22                    1.000
      241         22.00000         22                    1.000
      242         22.00000         22                    1.000
      243         22.00000         22                    1.000
      244         22.00000         22                    1.000
      245         22.00000         22                    1.000
      246         22.00000         22                    1.000
      247         22.00000         22                    1.000
      248         22.00000         22                    1.000
      249         22.00000         22                    1.000
      250         22.00000         22                    1.000
      251         22.00000         22                    1.000
      252         22.00000         22                    1.000
      253         22.00000         22                    1.000
      254         22.00000         22                    1.000
      255         22.00000         22                    1.000
      256         22.00000         22                    1.000
      257         22.00000         22                    1.000
      258         22.00000         22                    1.000
      259         22.00000         22                    1.000
      260         22.00000         22                    1.000
      261         22.00000         22                    1.000
      262         22.00000         22                    1.000
      263         22.00000         22                    1.000
      264         22.00000         22                    1.000
      265         22.00000         22                    1.000
      266         22.00000         22                    1.000
      267         22.00000         22                    1.000
      268         22.00000         22                    1.000
      269         22.00000         22                    1.000
      270         22.00000         22                    1.000
      271         22.00000         22                    1.000
      272         22.00000         22                    1.000
      273         22.00000         22                    1.000
      274         22.00000         22                    1.000
      275         22.00000         22                    1.000
      276         22.00000         22                    1.000
      277         22.00000         22                    1.000
      278         22.00000         22                    1.000
      279         22.00000         22                    1.000
      280         22.00000         22                    1.000
      281         22.00000         22                    1.000
      282         22.00000         22                    1.000
      283         22.00000         22                    1.000
      284         22.00000         22                    1.000
      285         22.00000         22                    1.000
      286         22.00000         22                    1.000
      287         22.00000         22                    1.000
      288         22.00000         22                    1.000
      289         22.00000         22                    1.000
      290         22.00000         22                    1.000
      291         22.00000         22                    1.000
      292         22.00000         22                    1.000
      293         22.00000         22                    1.000
      294         22.00000         22                    1.000
      295         22.00000         22                    1.000
      296         22.00000         22                    1.000
      297         22.00000         22                    1.000
      298         22.00000         22                    1.000
      299         22.00000         22                    1.000
      300         22.00000         22                    1.000
      301         22.00000         22                    1.000
      302         22.00000         22                    1.000
      303         22.00000         22                    1.000
      304         22.00000         22                    1.000
      305         22.00000         22                    1.000
      306         22.00000         22                    1.000
      307         22.00000         22                    1.000
      308         22.00000         22                    1.000
      309         22.00000         22                    1.000
      310         22.00000         22                    1.000
      311         22.00000         22                    1.000
      312         22.00000         22                    1.000
      313         22.00000         22                    1.000
      314         22.00000         22                    1.000
      315         22.00000         22                    1.000
      316         22.00000         22                    1.000
      317         22.00000         22                    1.000
      318         22.00000         22                    1.000
      319         22.00000         22                    1.000
      320         22.00000         22                    1.000
      321         22.00000         22                    1.000
      322         22.00000         22                    1.000
      323         22.00000         22                    1.000
      324         22.00000         22                    1.000
      325         22.00000         22                    1.000
      326         22.00000         22                    1.000
      327         22.00000         22                    1.000
      328         22.00000         22                    1.000
      329         22.00000         22                    1.000
      330         22.00000         22                    1.000
      331         22.00000         22                    1.000
      332         22.00000         22                    1.000
      333         22.00000         22                    1.000
      334         22.00000         22                    1.000
      335         22.00000         22                    1.000
      336         22.00000         22                    1.000
      337         22.00000         22                    1.000
      338         22.00000         22                    1.000
      339         22.00000         22                    1.000
      340         22.00000         22                    1.000
      341         22.00000         22                    1.000
      342         22.00000         22                    1.000
      343         22.00000         22                    1.000
      344         22.00000         22                    1.000
      345         22.00000         22                    1.000
      346         22.00000         22                    1.000
      347         22.00000         22                    1.000
      348         22.00000         22                    1.000
      349         22.00000         22                    1.000
      350         22.00000         22                    1.000
      351         22.00000         22                    1.000
      352         22.00000         22                    1.000
      353         22.00000         22                    1.000
 END OF TDIS PERIODDATA
 END OF SIMULATION TIMING

 READING SIMULATION MODELS
    GWF6 model 1 will be created
 END OF SIMULATION MODELS

 READING SIMULATION EXCHANGES
 END OF SIMULATION EXCHANGES

 READING SOLUTIONGROUP

 Creating solution: SLN_1           

 OPENED ex-gwf-csub-p03a.ims
 FILE TYPE:IMS   UNIT 1015   STATUS:OLD                 
 FORMAT:FORMATTED              ACCESS:SEQUENTIAL          
 ACTION:READ                

 END OF SOLUTIONGROUP

PROCESSING MODEL CONNECTIONS

ERROR REPORT:

  1. Could not open "ex-gwf-csub-p03a.csub.obs" on unit 1016. File already
     open on unit 1009. Specified file status OLD. Specified file format
     FORMATTED. Specified file access SEQUENTIAL. Specified file action READ.
     IOSTAT error number -1. STOP EXECUTION in subroutine openfile().
