                                  MODFLOW-2005     
      U.S. GEOLOGICAL SURVEY MODULAR FINITE-DIFFERENCE GROUND-WATER FLOW MODEL
                       VERSION 1.6.01 3/4/2009, with FMP2

 LIST FILE: p05_mf.list
                         UNIT    2

 OPENING p05_mf.dis
 FILE TYPE:DIS   UNIT   11   STATUS:OLD    
 FORMAT:FORMATTED              ACCESS:SEQUENTIAL          

 OPENING p05_mf.bas
 FILE TYPE:BAS6   UNIT   13   STATUS:OLD    
 FORMAT:FORMATTED              ACCESS:SEQUENTIAL          

 OPENING p05_mf.lpf
 FILE TYPE:LPF   UNIT   15   STATUS:OLD    
 FORMAT:FORMATTED              ACCESS:SEQUENTIAL          

 OPENING p05_mf.wel
 FILE TYPE:WEL   UNIT   20   STATUS:OLD    
 FORMAT:FORMATTED              ACCESS:SEQUENTIAL          

 OPENING p05_mf.sip
 FILE TYPE:SIP   UNIT   25   STATUS:OLD    
 FORMAT:FORMATTED              ACCESS:SEQUENTIAL          

 OPENING p05_mf.lmt6
 FILE TYPE:LMT6   UNIT   30   STATUS:OLD    
 FORMAT:FORMATTED              ACCESS:SEQUENTIAL          

 BAS -- BASIC PACKAGE, VERSION 7, 5/2/2005 INPUT READ FROM UNIT   13

 DISCRETIZATION INPUT DATA READ FROM UNIT   11
 # DIS package for MODFLOW-2005 generated by Flopy 3.9.1
    1 LAYERS        31 ROWS        31 COLUMNS
    1 STRESS PERIOD(S) IN SIMULATION
 MODEL TIME UNIT IS DAYS
 MODEL LENGTH UNIT IS METERS
  Confining bed flag for each layer:
   0

                     DELR =   10.0000    

                     DELC =   10.0000    

 TOP ELEVATION OF LAYER 1 =   0.00000    

   MODEL LAYER BOTTOM EL. =  -1.00000     FOR LAYER   1


 STRESS PERIOD     LENGTH       TIME STEPS     MULTIPLIER FOR DELT    SS FLAG
 ----------------------------------------------------------------------------
        1         27.00000          1                    1.000         SS

 STEADY-STATE SIMULATION



 
 # BAS6 package for MODFLOW-2005 generated by Flopy 3.9.1                        
 THE FREE FORMAT OPTION HAS BEEN SELECTED



                     BOUNDARY ARRAY FOR LAYER   1
 READING ON UNIT   13 WITH FORMAT: (31I10)             

 AQUIFER HEAD WILL BE SET TO  -999.99     AT ALL NO-FLOW NODES (IBOUND=0).

             INITIAL HEAD =   0.00000     FOR LAYER   1

 DEFAULT OUTPUT CONTROL
 THE FOLLOWING OUTPUT COMES AT THE END OF EACH STRESS PERIOD:
 TOTAL VOLUMETRIC BUDGET
           HEAD

 LPF -- LAYER-PROPERTY FLOW PACKAGE, VERSION 7, 5/2/2005
         INPUT READ FROM UNIT   15
 # LPF package for MODFLOW-2005 generated by Flopy 3.9.1
 HEAD AT CELLS THAT CONVERT TO DRY= -1.00000E+30
 No named parameters

   LAYER FLAGS:
 LAYER       LAYTYP        LAYAVG         CHANI        LAYVKA        LAYWET
 ---------------------------------------------------------------------------
    1             0             0     1.000E+00             0             0

   INTERPRETATION OF LAYER FLAGS:
                        INTERBLOCK     HORIZONTAL    DATA IN
         LAYER TYPE   TRANSMISSIVITY   ANISOTROPY   ARRAY VKA   WETTABILITY
 LAYER      (LAYTYP)      (LAYAVG)       (CHANI)      (LAYVKA)      (LAYWET)
 ---------------------------------------------------------------------------
    1      CONFINED      HARMONIC     1.000E+00    VERTICAL K  NON-WETTABLE

 WETTING CAPABILITY IS NOT ACTIVE IN ANY LAYER

    HYD. COND. ALONG ROWS =   1.00000     FOR LAYER   1

      VERTICAL HYD. COND. =   1.00000     FOR LAYER   1

 WEL -- WELL PACKAGE, VERSION 7, 5/2/2005 INPUT READ FROM UNIT   20
 # WEL package for MODFLOW-2005 generated by Flopy 3.9.1
 No named parameters
 MAXIMUM OF      1 ACTIVE WELLS AT ONE TIME


     0 Well parameters

 SIP -- STRONGLY-IMPLICIT PROCEDURE SOLUTION PACKAGE
                    VERSION 7, 5/2/2005 INPUT READ FROM UNIT   25
 # SIP package for MODFLOW-2005 generated by Flopy 3.9.1
 MAXIMUM OF 200 ITERATIONS ALLOWED FOR CLOSURE
  5 ITERATION PARAMETERS

          SOLUTION BY THE STRONGLY IMPLICIT PROCEDURE
          -------------------------------------------
 MAXIMUM ITERATIONS ALLOWED FOR CLOSURE =      200
                 ACCELERATION PARAMETER =     1.0000    
      HEAD CHANGE CRITERION FOR CLOSURE =    0.10000E-04
      SIP HEAD CHANGE PRINTOUT INTERVAL =      999

     CALCULATE ITERATION PARAMETERS FROM MODEL CALCULATED WSEED
1
                            STRESS PERIOD NO.    1, LENGTH =   27.00000    
                            -----------------------------------------------

                              NUMBER OF TIME STEPS =     1

                               MULTIPLIER FOR DELT =     1.000

                            INITIAL TIME STEP SIZE =   27.00000    

 WELL NO.  LAYER   ROW   COL   STRESS RATE         
 --------------------------------------------------
      1      1     16     16       100.0    

      1 WELL 
 
 SOLVING FOR HEAD 

 AVERAGE SEED = 0.00256753
 MINIMUM SEED = 0.00256753

     5 ITERATION PARAMETERS CALCULATED FROM AVERAGE SEED:

  0.000000E+00 0.774898E+00 0.949329E+00 0.988594E+00 0.997432E+00

    29 ITERATIONS FOR TIME STEP   1 IN STRESS PERIOD    1

 MAXIMUM HEAD CHANGE FOR EACH ITERATION:

    HEAD CHANGE   HEAD CHANGE   HEAD CHANGE   HEAD CHANGE   HEAD CHANGE
  LAYER,ROW,COL LAYER,ROW,COL LAYER,ROW,COL LAYER,ROW,COL LAYER,ROW,COL
 ----------------------------------------------------------------------
      36.14         10.62         9.607         10.40         5.928    
  (  1, 16, 16) (  1, 17, 15) (  1, 16, 16) (  1, 16, 16) (  1, 18, 22)
    -0.3517       -0.4983       -0.4445       -0.5909       -0.1855    
  (  1, 14, 20) (  1, 13, 19) (  1, 16, 16) (  1, 20, 20) (  1, 15, 26)
     0.3299E-01    0.4831E-01    0.4414E-01   -0.3640E-01    0.2147E-01
  (  1, 21, 21) (  1, 21, 21) (  1, 21, 21) (  1, 16, 16) (  1, 14, 18)
     0.2677E-02    0.2682E-02    0.5147E-02    0.1552E-02    0.2043E-02
  (  1, 16, 16) (  1, 16, 16) (  1, 15, 17) (  1, 11, 27) (  1, 11, 13)
     0.3940E-03    0.6511E-03    0.2255E-03    0.4216E-03    0.1290E-03
  (  1, 13, 19) (  1, 14, 18) (  1, 15, 17) (  1, 15, 17) (  1, 11, 11)
    -0.2754E-04   -0.2751E-04   -0.5506E-04   -0.8579E-05
  (  1, 16, 16) (  1, 16, 16) (  1, 16, 16) (  1, 22, 18)



 ***Link-MT3DMS Package v7***
 OPENING LINK-MT3DMS OUTPUT FILE: mt3d_link.ftl                                                                                                                                                                                           
 ON UNIT NUMBER:    54
 FILE TYPE: UNFORMATTED
 HEADER OPTION: EXTENDED
 ***Link-MT3DMS Package v7***


 SAVING SATURATED THICKNESS AND FLOW TERMS ON UNIT   54 FOR MT3DMS
 BY THE LINK-MT3DMS PACKAGE V7 AT TIME STEP    1, STRESS PERIOD    1

1
              HEAD IN LAYER   1 AT END OF TIME STEP   1 IN STRESS PERIOD    1
  ---------------------------------------------------------------------------

            1           2           3           4           5           6           7           8           9          10
           11          12          13          14          15          16          17          18          19          20
           21          22          23          24          25          26          27          28          29          30
           31
 ........................................................................................................................
   1    0.000       0.000       0.000       0.000       0.000       0.000       0.000       0.000       0.000       0.000    
        0.000       0.000       0.000       0.000       0.000       0.000       0.000       0.000       0.000       0.000    
        0.000       0.000       0.000       0.000       0.000       0.000       0.000       0.000       0.000       0.000    
        0.000    
   2    0.000      0.1212      0.2425      0.3637      0.4845      0.6045      0.7229      0.8384      0.9494       1.054    
        1.149       1.233       1.302       1.353       1.385       1.396       1.385       1.353       1.302       1.233    
        1.149       1.054      0.9494      0.8384      0.7229      0.6045      0.4845      0.3637      0.2425      0.1212    
        0.000    
   3    0.000      0.2425      0.4851      0.7276      0.9698       1.211       1.449       1.681       1.905       2.117    
        2.310       2.480       2.620       2.726       2.791       2.813       2.791       2.726       2.620       2.480    
        2.310       2.117       1.905       1.681       1.449       1.211      0.9698      0.7276      0.4851      0.2425    
        0.000    
   4    0.000      0.3637      0.7276       1.092       1.456       1.820       2.180       2.533       2.874       3.197    
        3.495       3.757       3.975       4.138       4.240       4.274       4.240       4.138       3.975       3.757    
        3.495       3.197       2.874       2.533       2.180       1.820       1.456       1.092      0.7276      0.3637    
        0.000    
   5    0.000      0.4845      0.9698       1.456       1.944       2.432       2.917       3.396       3.861       4.304    
        4.714       5.079       5.383       5.613       5.756       5.805       5.756       5.613       5.383       5.079    
        4.714       4.304       3.861       3.396       2.917       2.432       1.944       1.456      0.9698      0.4845    
        0.000    
   6    0.000      0.6045       1.211       1.820       2.432       3.047       3.662       4.272       4.870       5.444    
        5.980       6.460       6.865       7.174       7.367       7.433       7.367       7.174       6.865       6.460    
        5.980       5.444       4.870       4.272       3.662       3.047       2.432       1.820       1.211      0.6045    
        0.000    
   7    0.000      0.7229       1.449       2.180       2.917       3.662       4.411       5.161       5.902       6.621    
        7.301       7.918       8.444       8.849       9.106       9.194       9.106       8.849       8.444       7.918    
        7.301       6.621       5.902       5.161       4.411       3.662       2.917       2.180       1.449      0.7229    
        0.000    
   8    0.000      0.8384       1.681       2.533       3.396       4.272       5.161       6.058       6.956       7.839    
        8.686       9.466       10.14       10.67       11.01       11.13       11.01       10.67       10.14       9.466    
        8.686       7.839       6.956       6.058       5.161       4.272       3.396       2.533       1.681      0.8384    
        0.000    
   9    0.000      0.9494       1.905       2.874       3.861       4.870       5.902       6.956       8.024       9.092    
        10.14       11.12       11.99       12.69       13.14       13.30       13.14       12.69       11.99       11.12    
        10.14       9.092       8.024       6.956       5.902       4.870       3.861       2.874       1.905      0.9494    
        0.000    
  10    0.000       1.054       2.117       3.197       4.304       5.444       6.621       7.839       9.092       10.37    
        11.65       12.88       14.01       14.94       15.57       15.79       15.57       14.94       14.01       12.88    
        11.65       10.37       9.092       7.839       6.621       5.444       4.304       3.197       2.117       1.054    
        0.000    
  11    0.000       1.149       2.310       3.495       4.714       5.980       7.301       8.686       10.14       11.65    
        13.20       14.75       16.23       17.50       18.40       18.73       18.40       17.50       16.23       14.75    
        13.20       11.65       10.14       8.686       7.301       5.980       4.714       3.495       2.310       1.149    
        0.000    
  12    0.000       1.233       2.480       3.757       5.079       6.460       7.918       9.466       11.12       12.88    
        14.75       16.70       18.65       20.44       21.79       22.33       21.79       20.44       18.65       16.70    
        14.75       12.88       11.12       9.466       7.918       6.460       5.079       3.757       2.480       1.233    
        0.000    
  13    0.000       1.302       2.620       3.975       5.383       6.865       8.444       10.14       11.99       14.01    
        16.23       18.65       21.23       23.82       25.99       27.00       25.99       23.82       21.23       18.65    
        16.23       14.01       11.99       10.14       8.444       6.865       5.383       3.975       2.620       1.302    
        0.000    
  14    0.000       1.353       2.726       4.138       5.613       7.174       8.849       10.67       12.69       14.94    
        17.50       20.44       23.82       27.59       31.37       33.69       31.37       27.59       23.82       20.44    
        17.50       14.94       12.69       10.67       8.849       7.174       5.613       4.138       2.726       1.353    
        0.000    
  15    0.000       1.385       2.791       4.240       5.756       7.367       9.106       11.01       13.14       15.57    
        18.40       21.79       25.99       31.37       38.20       45.03       38.20       31.37       25.99       21.79    
        18.40       15.57       13.14       11.01       9.106       7.367       5.756       4.240       2.791       1.385    
        0.000    
  16    0.000       1.396       2.813       4.274       5.805       7.433       9.194       11.13       13.30       15.79    
        18.73       22.33       27.00       33.69       45.03       70.03       45.03       33.69       27.00       22.33    
        18.73       15.79       13.30       11.13       9.194       7.433       5.805       4.274       2.813       1.396    
        0.000    
  17    0.000       1.385       2.791       4.240       5.756       7.367       9.106       11.01       13.14       15.57    
        18.40       21.79       25.99       31.37       38.20       45.03       38.20       31.37       25.99       21.79    
        18.40       15.57       13.14       11.01       9.106       7.367       5.756       4.240       2.791       1.385    
        0.000    
  18    0.000       1.353       2.726       4.138       5.613       7.174       8.849       10.67       12.69       14.94    
        17.50       20.44       23.82       27.59       31.37       33.69       31.37       27.59       23.82       20.44    
        17.50       14.94       12.69       10.67       8.849       7.174       5.613       4.138       2.726       1.353    
        0.000    
  19    0.000       1.302       2.620       3.975       5.383       6.865       8.444       10.14       11.99       14.01    
        16.23       18.65       21.23       23.82       25.99       27.00       25.99       23.82       21.23       18.65    
        16.23       14.01       11.99       10.14       8.444       6.865       5.383       3.975       2.620       1.302    
        0.000    
  20    0.000       1.233       2.480       3.757       5.079       6.460       7.918       9.466       11.12       12.88    
        14.75       16.70       18.65       20.44       21.79       22.33       21.79       20.44       18.65       16.70    
        14.75       12.88       11.12       9.466       7.918       6.460       5.079       3.757       2.480       1.233    
        0.000    
  21    0.000       1.149       2.310       3.495       4.714       5.980       7.301       8.686       10.14       11.65    
        13.20       14.75       16.23       17.50       18.40       18.73       18.40       17.50       16.23       14.75    
        13.20       11.65       10.14       8.686       7.301       5.980       4.714       3.495       2.310       1.149    
        0.000    
  22    0.000       1.054       2.117       3.197       4.304       5.444       6.621       7.839       9.092       10.37    
        11.65       12.88       14.01       14.94       15.57       15.79       15.57       14.94       14.01       12.88    
        11.65       10.37       9.092       7.839       6.621       5.444       4.304       3.197       2.117       1.054    
        0.000    
  23    0.000      0.9494       1.905       2.874       3.861       4.870       5.902       6.956       8.024       9.092    
        10.14       11.12       11.99       12.69       13.14       13.30       13.14       12.69       11.99       11.12    
        10.14       9.092       8.024       6.956       5.902       4.870       3.861       2.874       1.905      0.9494    
        0.000    
  24    0.000      0.8384       1.681       2.533       3.396       4.272       5.161       6.058       6.956       7.839    
        8.686       9.466       10.14       10.67       11.01       11.13       11.01       10.67       10.14       9.466    
        8.686       7.839       6.956       6.058       5.161       4.272       3.396       2.533       1.681      0.8384    
        0.000    
  25    0.000      0.7229       1.449       2.180       2.917       3.662       4.411       5.161       5.902       6.621    
        7.301       7.918       8.444       8.849       9.106       9.194       9.106       8.849       8.444       7.918    
        7.301       6.621       5.902       5.161       4.411       3.662       2.917       2.180       1.449      0.7229    
        0.000    
  26    0.000      0.6045       1.211       1.820       2.432       3.047       3.662       4.272       4.870       5.444    
        5.980       6.460       6.865       7.174       7.367       7.433       7.367       7.174       6.865       6.460    
        5.980       5.444       4.870       4.272       3.662       3.047       2.432       1.820       1.211      0.6045    
        0.000    
  27    0.000      0.4845      0.9698       1.456       1.944       2.432       2.917       3.396       3.861       4.304    
        4.714       5.079       5.383       5.613       5.756       5.805       5.756       5.613       5.383       5.079    
        4.714       4.304       3.861       3.396       2.917       2.432       1.944       1.456      0.9698      0.4845    
        0.000    
  28    0.000      0.3637      0.7276       1.092       1.456       1.820       2.180       2.533       2.874       3.197    
        3.495       3.757       3.975       4.138       4.240       4.274       4.240       4.138       3.975       3.757    
        3.495       3.197       2.874       2.533       2.180       1.820       1.456       1.092      0.7276      0.3637    
        0.000    
  29    0.000      0.2425      0.4851      0.7276      0.9698       1.211       1.449       1.681       1.905       2.117    
        2.310       2.480       2.620       2.726       2.791       2.813       2.791       2.726       2.620       2.480    
        2.310       2.117       1.905       1.681       1.449       1.211      0.9698      0.7276      0.4851      0.2425    
        0.000    
  30    0.000      0.1212      0.2425      0.3637      0.4845      0.6045      0.7229      0.8384      0.9494       1.054    
        1.149       1.233       1.302       1.353       1.385       1.396       1.385       1.353       1.302       1.233    
        1.149       1.054      0.9494      0.8384      0.7229      0.6045      0.4845      0.3637      0.2425      0.1212    
        0.000    
  31    0.000       0.000       0.000       0.000       0.000       0.000       0.000       0.000       0.000       0.000    
        0.000       0.000       0.000       0.000       0.000       0.000       0.000       0.000       0.000       0.000    
        0.000       0.000       0.000       0.000       0.000       0.000       0.000       0.000       0.000       0.000    
        0.000    
1
  VOLUMETRIC BUDGET FOR ENTIRE MODEL AT END OF TIME STEP  1 IN STRESS PERIOD   1
  ------------------------------------------------------------------------------

     CUMULATIVE VOLUMES      L**3       RATES FOR THIS TIME STEP      L**3/T
     ------------------                 ------------------------

           IN:                                      IN:
           ---                                      ---
             STORAGE =           0.0000               STORAGE =           0.0000
       CONSTANT HEAD =           0.0000         CONSTANT HEAD =           0.0000
               WELLS =        2700.0000                 WELLS =         100.0000

            TOTAL IN =        2700.0000              TOTAL IN =         100.0000

          OUT:                                     OUT:
          ----                                     ----
             STORAGE =           0.0000               STORAGE =           0.0000
       CONSTANT HEAD =        2700.0007         CONSTANT HEAD =         100.0000
               WELLS =           0.0000                 WELLS =           0.0000

           TOTAL OUT =        2700.0007             TOTAL OUT =         100.0000

            IN - OUT =      -7.3242E-04              IN - OUT =      -2.2888E-05

 PERCENT DISCREPANCY =           0.00     PERCENT DISCREPANCY =           0.00






          TIME SUMMARY AT END OF TIME STEP   1 IN STRESS PERIOD    1
                    SECONDS     MINUTES      HOURS       DAYS        YEARS
                    -----------------------------------------------------------
   TIME STEP LENGTH 2.33280E+06  38880.      648.00      27.000     7.39220E-02
 STRESS PERIOD TIME 2.33280E+06  38880.      648.00      27.000     7.39220E-02
         TOTAL TIME 2.33280E+06  38880.      648.00      27.000     7.39220E-02
1

 Run end date and time (yyyy/mm/dd hh:mm:ss): 2025/02/27 15:08:34
 Elapsed run time:  0.016 Seconds

