                                   MODFLOW 6
                U.S. GEOLOGICAL SURVEY MODULAR HYDROLOGIC MODEL
                             TRANSPORT MODEL (GWT)
                            VERSION 6.6.0 12/20/2024

   MODFLOW 6 compiled Dec 31 2024 17:10:16 with Intel(R) Fortran Intel(R) 64
   Compiler Classic for applications running on Intel(R) 64, Version 2021.7.0
                             Build 20220726_000000

This software has been approved for release by the U.S. Geological 
Survey (USGS). Although the software has been subjected to rigorous 
review, the USGS reserves the right to update the software as needed 
pursuant to further analysis and review. No warranty, expressed or 
implied, is made by the USGS or the U.S. Government as to the 
functionality of the software and related material nor shall the 
fact of release constitute any such warranty. Furthermore, the 
software is released on condition that neither the USGS nor the U.S. 
Government shall be held liable for any damages resulting from its 
authorized or unauthorized use. Also refer to the USGS Water 
Resources Software User Rights Notice for complete use, copyright, 
and distribution information.


As a work of the United States Government, this USGS product is 
in the public domain within the United States. You can copy, 
modify, distribute, and perform the work, even for commercial 
purposes, all without asking permission. Additionally, USGS 
waives copyright and related rights in the work worldwide 
through CC0 1.0 Universal Public Domain Dedication 
(https://creativecommons.org/publicdomain/zero/1.0/).

The following GNU Lesser General Public License (LGPL) libraries
are used in this USGS product:

    SPARSKIT version 2.0
      ilut, luson, and qsplit 
      (https://www-users.cse.umn.edu/~saad/software/SPARSKIT/)

    RCM - Reverse Cuthill McKee Ordering
      (https://people.math.sc.edu/Burkardt/f_src/rcm/rcm.html)

    BLAS - Basic Linear Algebra Subprograms Level 1
      (https://people.math.sc.edu/Burkardt/f_src/blas1_d/blas1_d.html)

    SPARSEKIT - Sparse Matrix Utility Package
      amux, dperm, dvperm, rperm, and cperm
      (https://people.sc.fsu.edu/~jburkardt/f77_src/sparsekit/sparsekit.html)

The following BSD-3 License libraries are used in this USGS product:

    Modern Fortran DAG Library
      Copyright (c) 2018, Jacob Williams
      All rights reserved.
      (https://github.com/jacobwilliams/daglib)

MODFLOW 6 compiler options: /O2 /heap-arrays:0 /fpe:0 /traceback /nologo /fpp
/c /module:win64\mod_mf6\ /object:win64\obj_mf6\

System command used to initiate simulation:
C:\Users\gross.DESKTOP-AIRQM2M\anaconda3\Scripts\mf6.exe

MODFLOW was compiled using uniform precision.

Real Variables
  KIND: 8
  TINY (smallest non-zero value):    2.225074-308
  HUGE (largest value):    1.797693+308
  PRECISION: 15
  SIZE IN BITS: 64

Integer Variables
  KIND: 4
  HUGE (largest value): 2147483647
  SIZE IN BITS: 32

Long Integer Variables
  KIND: 8
  HUGE (largest value): 9223372036854775807
  SIZE IN BITS: 64

Logical Variables
  KIND: 4
  SIZE IN BITS: 32
 
 NAMEFILE OPTIONS:
    FLOWS WILL BE SAVED TO BUDGET FILE SPECIFIED IN OUTPUT CONTROL
 END NAMEFILE OPTIONS:

 DIS -- STRUCTURED GRID DISCRETIZATION PACKAGE, VERSION 2 : 3/27/2014 - INPUT READ FROM MEMPATH: __INPUT__/GWT_P03-MF6/DIS                         


 DSP-- DISPERSION PACKAGE, VERSION 1, 1/24/2018 INPUT READ FROM MEMPATH: __INPUT__/GWT_P03-MF6/DSP                         


 Setting Discretization Options
 End Setting Discretization Options

 Setting Discretization Dimensions
    NLAY = 1
    NROW = 31
    NCOL = 46
 End Setting Discretization Dimensions

 Setting Discretization Griddata
    DELR set from input file
    DELC set from input file
    TOP set from input file
    BOTM set from input file
    IDOMAIN set from input file
 End Setting Discretization Griddata


 FMI -- FLOW MODEL INTERFACE,' VERSION 2, 8/17/2023
  FLOWS PROVIDED BY A GWF MODEL IN THIS SIMULATION

 ADV-- ADVECTION PACKAGE, VERSION 1, 8/25/2017 INPUT READ FROM UNIT 1015


 # File generated by Flopy version 3.9.1 on 02/27/2025 at 15:42:30.
 PROCESSING ADVECTION OPTIONS
    ADVECTION WEIGHTING SCHEME HAS BEEN SET TO: UPSTREAM
 END OF ADVECTION OPTIONS
 Setting DSP Options
    XT3D formulation [0=INACTIVE, 1=ACTIVE, 3=ACTIVE RHS] set to: 0
 End Setting DSP Options

 Setting DSP Griddata
    ALH set from input file
    ATH1 set from input file
 End Setting DSP Griddata


 CNC   -- CNC PACKAGE, VERSION 8, 2/22/2014 INPUT READ FROM MEMPATH: __INPUT__/GWT_P03-MF6/CNC-1                       

 PROCESSING CNC BASE OPTIONS
 END OF CNC BASE OPTIONS

 PROCESSING CNC BASE DIMENSIONS
    MAXBOUND =       1
 END OF CNC BASE DIMENSIONS
    STRT set from input file

 MST -- MOBILE STORAGE AND TRANSFER PACKAGE, VERSION 1, 7/29/2020 INPUT READ FROM UNIT 1014


 # File generated by Flopy version 3.9.1 on 02/27/2025 at 15:42:30.
 PROCESSING MOBILE STORAGE AND TRANSFER OPTIONS
 END OF MOBILE STORAGE AND TRANSFER OPTIONS
 PROCESSING GRIDDATA

   MOBILE DOMAIN POROSITY =  0.3000000    
 END PROCESSING GRIDDATA

 SSM -- SOURCE-SINK MIXING PACKAGE, VERSION 1, 8/25/2017 INPUT READ FROM UNIT 1017


 # File generated by Flopy version 3.9.1 on 02/27/2025 at 15:42:30.
 PROCESSING SSM OPTIONS
 END OF SSM OPTIONS
 PROCESSING SOURCES
 AUX SOURCE DETECTED.
    USING AUX COLUMN 1 IN PACKAGE WEL-1
 END PROCESSING SOURCES
 OPTIONAL FILEINPUT BLOCK NOT FOUND.  CONTINUING.
      THE LAST TIME STEP WILL BE PRINTED
      THE LAST TIME STEP WILL BE PRINTED
 # File generated by Flopy version 3.9.1 on 02/27/2025 at 15:42:30.

 PROCESSING OC OPTIONS

    BUDGET INFORMATION WILL BE WRITTEN TO:
      UNIT NUMBER: 1028
      FILE NAME: gwt_p03-mf6.cbc

 OPENED gwt_p03-mf6.cbc
 FILE TYPE:DATA(BINARY)   UNIT 1028   STATUS:REPLACE             
 FORMAT:UNFORMATTED            ACCESS:STREAM              
 ACTION:READWRITE           

    CONCENTRATION INFORMATION WILL BE WRITTEN TO:
      UNIT NUMBER: 1029
      FILE NAME: gwt_p03-mf6.UCN

 OPENED gwt_p03-mf6.UCN
 FILE TYPE:DATA(BINARY)   UNIT 1029   STATUS:REPLACE             
 FORMAT:UNFORMATTED            ACCESS:STREAM              
 ACTION:READWRITE           

 END OF OC OPTIONS

start timestep kper="1" kstp="1" mode="normal"


 BEGIN READING OUTPUT CONTROL FOR STRESS PERIOD 1
      THE LAST TIME STEP WILL BE SAVED
      THE LAST TIME STEP WILL BE SAVED
      THE LAST TIME STEP WILL BE PRINTED
      THE LAST TIME STEP WILL BE PRINTED

 END READING OUTPUT CONTROL FOR STRESS PERIOD 1

end timestep


start timestep kper="1" kstp="2" mode="normal"


end timestep


start timestep kper="1" kstp="3" mode="normal"


end timestep


start timestep kper="1" kstp="4" mode="normal"


end timestep


start timestep kper="1" kstp="5" mode="normal"


end timestep


start timestep kper="1" kstp="6" mode="normal"


end timestep


start timestep kper="1" kstp="7" mode="normal"


end timestep


start timestep kper="1" kstp="8" mode="normal"


end timestep


start timestep kper="1" kstp="9" mode="normal"


end timestep


start timestep kper="1" kstp="10" mode="normal"


end timestep


start timestep kper="1" kstp="11" mode="normal"


end timestep


start timestep kper="1" kstp="12" mode="normal"


end timestep


start timestep kper="1" kstp="13" mode="normal"


end timestep


start timestep kper="1" kstp="14" mode="normal"


end timestep


start timestep kper="1" kstp="15" mode="normal"


end timestep


start timestep kper="1" kstp="16" mode="normal"


end timestep


start timestep kper="1" kstp="17" mode="normal"


end timestep


start timestep kper="1" kstp="18" mode="normal"


end timestep


start timestep kper="1" kstp="19" mode="normal"


end timestep


start timestep kper="1" kstp="20" mode="normal"


end timestep


start timestep kper="1" kstp="21" mode="normal"


end timestep


start timestep kper="1" kstp="22" mode="normal"


end timestep


start timestep kper="1" kstp="23" mode="normal"


end timestep


start timestep kper="1" kstp="24" mode="normal"


end timestep


start timestep kper="1" kstp="25" mode="normal"


end timestep


start timestep kper="1" kstp="26" mode="normal"


end timestep


start timestep kper="1" kstp="27" mode="normal"


end timestep


start timestep kper="1" kstp="28" mode="normal"


end timestep


start timestep kper="1" kstp="29" mode="normal"


end timestep


start timestep kper="1" kstp="30" mode="normal"


end timestep


start timestep kper="1" kstp="31" mode="normal"


end timestep


start timestep kper="1" kstp="32" mode="normal"


end timestep


start timestep kper="1" kstp="33" mode="normal"


end timestep


start timestep kper="1" kstp="34" mode="normal"


end timestep


start timestep kper="1" kstp="35" mode="normal"


end timestep


start timestep kper="1" kstp="36" mode="normal"


end timestep


start timestep kper="1" kstp="37" mode="normal"


end timestep


start timestep kper="1" kstp="38" mode="normal"


end timestep


start timestep kper="1" kstp="39" mode="normal"


end timestep


start timestep kper="1" kstp="40" mode="normal"


end timestep


start timestep kper="1" kstp="41" mode="normal"


end timestep


start timestep kper="1" kstp="42" mode="normal"


end timestep


start timestep kper="1" kstp="43" mode="normal"


end timestep


start timestep kper="1" kstp="44" mode="normal"


end timestep


start timestep kper="1" kstp="45" mode="normal"


end timestep


start timestep kper="1" kstp="46" mode="normal"


end timestep


start timestep kper="1" kstp="47" mode="normal"


end timestep


start timestep kper="1" kstp="48" mode="normal"


end timestep


start timestep kper="1" kstp="49" mode="normal"


end timestep


start timestep kper="1" kstp="50" mode="normal"


end timestep


start timestep kper="1" kstp="51" mode="normal"


end timestep


start timestep kper="1" kstp="52" mode="normal"


end timestep


start timestep kper="1" kstp="53" mode="normal"


end timestep


start timestep kper="1" kstp="54" mode="normal"


end timestep


start timestep kper="1" kstp="55" mode="normal"


end timestep


start timestep kper="1" kstp="56" mode="normal"


end timestep


start timestep kper="1" kstp="57" mode="normal"


end timestep


start timestep kper="1" kstp="58" mode="normal"


end timestep


start timestep kper="1" kstp="59" mode="normal"


end timestep


start timestep kper="1" kstp="60" mode="normal"


end timestep


start timestep kper="1" kstp="61" mode="normal"


end timestep


start timestep kper="1" kstp="62" mode="normal"


end timestep


start timestep kper="1" kstp="63" mode="normal"


end timestep


start timestep kper="1" kstp="64" mode="normal"


end timestep


start timestep kper="1" kstp="65" mode="normal"


end timestep


start timestep kper="1" kstp="66" mode="normal"


end timestep


start timestep kper="1" kstp="67" mode="normal"


end timestep


start timestep kper="1" kstp="68" mode="normal"


end timestep


start timestep kper="1" kstp="69" mode="normal"


end timestep


start timestep kper="1" kstp="70" mode="normal"


end timestep


start timestep kper="1" kstp="71" mode="normal"


end timestep


start timestep kper="1" kstp="72" mode="normal"


end timestep


start timestep kper="1" kstp="73" mode="normal"


end timestep


start timestep kper="1" kstp="74" mode="normal"


end timestep


start timestep kper="1" kstp="75" mode="normal"


end timestep


start timestep kper="1" kstp="76" mode="normal"


end timestep


start timestep kper="1" kstp="77" mode="normal"


end timestep


start timestep kper="1" kstp="78" mode="normal"


end timestep


start timestep kper="1" kstp="79" mode="normal"


end timestep


start timestep kper="1" kstp="80" mode="normal"


end timestep


start timestep kper="1" kstp="81" mode="normal"


end timestep


start timestep kper="1" kstp="82" mode="normal"


end timestep


start timestep kper="1" kstp="83" mode="normal"


end timestep


start timestep kper="1" kstp="84" mode="normal"


end timestep


start timestep kper="1" kstp="85" mode="normal"


end timestep


start timestep kper="1" kstp="86" mode="normal"


end timestep


start timestep kper="1" kstp="87" mode="normal"


end timestep


start timestep kper="1" kstp="88" mode="normal"


end timestep


start timestep kper="1" kstp="89" mode="normal"


end timestep


start timestep kper="1" kstp="90" mode="normal"


end timestep


start timestep kper="1" kstp="91" mode="normal"


end timestep


start timestep kper="1" kstp="92" mode="normal"


end timestep


start timestep kper="1" kstp="93" mode="normal"


end timestep


start timestep kper="1" kstp="94" mode="normal"


end timestep


start timestep kper="1" kstp="95" mode="normal"


end timestep


start timestep kper="1" kstp="96" mode="normal"


end timestep


start timestep kper="1" kstp="97" mode="normal"


end timestep


start timestep kper="1" kstp="98" mode="normal"


end timestep


start timestep kper="1" kstp="99" mode="normal"


end timestep


start timestep kper="1" kstp="100" mode="normal"


end timestep


start timestep kper="1" kstp="101" mode="normal"


end timestep


start timestep kper="1" kstp="102" mode="normal"


end timestep


start timestep kper="1" kstp="103" mode="normal"


end timestep


start timestep kper="1" kstp="104" mode="normal"


end timestep


start timestep kper="1" kstp="105" mode="normal"


end timestep


start timestep kper="1" kstp="106" mode="normal"


end timestep


start timestep kper="1" kstp="107" mode="normal"


end timestep


start timestep kper="1" kstp="108" mode="normal"


end timestep


start timestep kper="1" kstp="109" mode="normal"


end timestep


start timestep kper="1" kstp="110" mode="normal"


end timestep


start timestep kper="1" kstp="111" mode="normal"


end timestep


start timestep kper="1" kstp="112" mode="normal"


end timestep


start timestep kper="1" kstp="113" mode="normal"


end timestep


start timestep kper="1" kstp="114" mode="normal"


end timestep


start timestep kper="1" kstp="115" mode="normal"


end timestep


start timestep kper="1" kstp="116" mode="normal"


end timestep


start timestep kper="1" kstp="117" mode="normal"


end timestep


start timestep kper="1" kstp="118" mode="normal"


end timestep


start timestep kper="1" kstp="119" mode="normal"


end timestep


start timestep kper="1" kstp="120" mode="normal"


end timestep


start timestep kper="1" kstp="121" mode="normal"


end timestep


start timestep kper="1" kstp="122" mode="normal"


end timestep


start timestep kper="1" kstp="123" mode="normal"


end timestep


start timestep kper="1" kstp="124" mode="normal"


end timestep


start timestep kper="1" kstp="125" mode="normal"


end timestep


start timestep kper="1" kstp="126" mode="normal"


end timestep


start timestep kper="1" kstp="127" mode="normal"


end timestep


start timestep kper="1" kstp="128" mode="normal"


end timestep


start timestep kper="1" kstp="129" mode="normal"


end timestep


start timestep kper="1" kstp="130" mode="normal"


end timestep


start timestep kper="1" kstp="131" mode="normal"


end timestep


start timestep kper="1" kstp="132" mode="normal"


end timestep


start timestep kper="1" kstp="133" mode="normal"


end timestep


start timestep kper="1" kstp="134" mode="normal"


end timestep


start timestep kper="1" kstp="135" mode="normal"


end timestep


start timestep kper="1" kstp="136" mode="normal"


end timestep


start timestep kper="1" kstp="137" mode="normal"


end timestep


start timestep kper="1" kstp="138" mode="normal"


end timestep


start timestep kper="1" kstp="139" mode="normal"


end timestep


start timestep kper="1" kstp="140" mode="normal"


end timestep


start timestep kper="1" kstp="141" mode="normal"


end timestep


start timestep kper="1" kstp="142" mode="normal"


end timestep


start timestep kper="1" kstp="143" mode="normal"


end timestep


start timestep kper="1" kstp="144" mode="normal"


end timestep


start timestep kper="1" kstp="145" mode="normal"


end timestep


start timestep kper="1" kstp="146" mode="normal"


end timestep


start timestep kper="1" kstp="147" mode="normal"


end timestep


start timestep kper="1" kstp="148" mode="normal"


end timestep


start timestep kper="1" kstp="149" mode="normal"


end timestep


start timestep kper="1" kstp="150" mode="normal"


end timestep


start timestep kper="1" kstp="151" mode="normal"


end timestep


start timestep kper="1" kstp="152" mode="normal"


end timestep


start timestep kper="1" kstp="153" mode="normal"


end timestep


start timestep kper="1" kstp="154" mode="normal"


end timestep


start timestep kper="1" kstp="155" mode="normal"


end timestep


start timestep kper="1" kstp="156" mode="normal"


end timestep


start timestep kper="1" kstp="157" mode="normal"


end timestep


start timestep kper="1" kstp="158" mode="normal"


end timestep


start timestep kper="1" kstp="159" mode="normal"


end timestep


start timestep kper="1" kstp="160" mode="normal"


end timestep


start timestep kper="1" kstp="161" mode="normal"


end timestep


start timestep kper="1" kstp="162" mode="normal"


end timestep


start timestep kper="1" kstp="163" mode="normal"


end timestep


start timestep kper="1" kstp="164" mode="normal"


end timestep


start timestep kper="1" kstp="165" mode="normal"


end timestep


start timestep kper="1" kstp="166" mode="normal"


end timestep


start timestep kper="1" kstp="167" mode="normal"


end timestep


start timestep kper="1" kstp="168" mode="normal"


end timestep


start timestep kper="1" kstp="169" mode="normal"


end timestep


start timestep kper="1" kstp="170" mode="normal"


end timestep


start timestep kper="1" kstp="171" mode="normal"


end timestep


start timestep kper="1" kstp="172" mode="normal"


end timestep


start timestep kper="1" kstp="173" mode="normal"


end timestep


start timestep kper="1" kstp="174" mode="normal"


end timestep


start timestep kper="1" kstp="175" mode="normal"


end timestep


start timestep kper="1" kstp="176" mode="normal"


end timestep


start timestep kper="1" kstp="177" mode="normal"


end timestep


start timestep kper="1" kstp="178" mode="normal"


end timestep


start timestep kper="1" kstp="179" mode="normal"


end timestep


start timestep kper="1" kstp="180" mode="normal"


end timestep


start timestep kper="1" kstp="181" mode="normal"


end timestep


start timestep kper="1" kstp="182" mode="normal"


end timestep


start timestep kper="1" kstp="183" mode="normal"


end timestep


start timestep kper="1" kstp="184" mode="normal"


end timestep


start timestep kper="1" kstp="185" mode="normal"


end timestep


start timestep kper="1" kstp="186" mode="normal"


end timestep


start timestep kper="1" kstp="187" mode="normal"


end timestep


start timestep kper="1" kstp="188" mode="normal"


end timestep


start timestep kper="1" kstp="189" mode="normal"


end timestep


start timestep kper="1" kstp="190" mode="normal"


end timestep


start timestep kper="1" kstp="191" mode="normal"


end timestep


start timestep kper="1" kstp="192" mode="normal"


end timestep


start timestep kper="1" kstp="193" mode="normal"


end timestep


start timestep kper="1" kstp="194" mode="normal"


end timestep


start timestep kper="1" kstp="195" mode="normal"


end timestep


start timestep kper="1" kstp="196" mode="normal"


end timestep


start timestep kper="1" kstp="197" mode="normal"


end timestep


start timestep kper="1" kstp="198" mode="normal"


end timestep


start timestep kper="1" kstp="199" mode="normal"


end timestep


start timestep kper="1" kstp="200" mode="normal"


end timestep


start timestep kper="1" kstp="201" mode="normal"


end timestep


start timestep kper="1" kstp="202" mode="normal"


end timestep


start timestep kper="1" kstp="203" mode="normal"


end timestep


start timestep kper="1" kstp="204" mode="normal"


end timestep


start timestep kper="1" kstp="205" mode="normal"


end timestep


start timestep kper="1" kstp="206" mode="normal"


end timestep


start timestep kper="1" kstp="207" mode="normal"


end timestep


start timestep kper="1" kstp="208" mode="normal"


end timestep


start timestep kper="1" kstp="209" mode="normal"


end timestep


start timestep kper="1" kstp="210" mode="normal"


end timestep


start timestep kper="1" kstp="211" mode="normal"


end timestep


start timestep kper="1" kstp="212" mode="normal"


end timestep


start timestep kper="1" kstp="213" mode="normal"


end timestep


start timestep kper="1" kstp="214" mode="normal"


end timestep


start timestep kper="1" kstp="215" mode="normal"


end timestep


start timestep kper="1" kstp="216" mode="normal"


end timestep


start timestep kper="1" kstp="217" mode="normal"


end timestep


start timestep kper="1" kstp="218" mode="normal"


end timestep


start timestep kper="1" kstp="219" mode="normal"


end timestep


start timestep kper="1" kstp="220" mode="normal"


end timestep


start timestep kper="1" kstp="221" mode="normal"


end timestep


start timestep kper="1" kstp="222" mode="normal"


end timestep


start timestep kper="1" kstp="223" mode="normal"


end timestep


start timestep kper="1" kstp="224" mode="normal"


end timestep


start timestep kper="1" kstp="225" mode="normal"


end timestep


start timestep kper="1" kstp="226" mode="normal"


end timestep


start timestep kper="1" kstp="227" mode="normal"


end timestep


start timestep kper="1" kstp="228" mode="normal"


end timestep


start timestep kper="1" kstp="229" mode="normal"


end timestep


start timestep kper="1" kstp="230" mode="normal"


end timestep


start timestep kper="1" kstp="231" mode="normal"


end timestep


start timestep kper="1" kstp="232" mode="normal"


end timestep


start timestep kper="1" kstp="233" mode="normal"


end timestep


start timestep kper="1" kstp="234" mode="normal"


end timestep


start timestep kper="1" kstp="235" mode="normal"


end timestep


start timestep kper="1" kstp="236" mode="normal"


end timestep


start timestep kper="1" kstp="237" mode="normal"


end timestep


start timestep kper="1" kstp="238" mode="normal"


end timestep


start timestep kper="1" kstp="239" mode="normal"


end timestep


start timestep kper="1" kstp="240" mode="normal"


end timestep


start timestep kper="1" kstp="241" mode="normal"


end timestep


start timestep kper="1" kstp="242" mode="normal"


end timestep


start timestep kper="1" kstp="243" mode="normal"


end timestep


start timestep kper="1" kstp="244" mode="normal"


end timestep


start timestep kper="1" kstp="245" mode="normal"


end timestep


start timestep kper="1" kstp="246" mode="normal"


end timestep


start timestep kper="1" kstp="247" mode="normal"


end timestep


start timestep kper="1" kstp="248" mode="normal"


end timestep


start timestep kper="1" kstp="249" mode="normal"


end timestep


start timestep kper="1" kstp="250" mode="normal"


end timestep


start timestep kper="1" kstp="251" mode="normal"


end timestep


start timestep kper="1" kstp="252" mode="normal"


end timestep


start timestep kper="1" kstp="253" mode="normal"


end timestep


start timestep kper="1" kstp="254" mode="normal"


end timestep


start timestep kper="1" kstp="255" mode="normal"


end timestep


start timestep kper="1" kstp="256" mode="normal"


end timestep


start timestep kper="1" kstp="257" mode="normal"


end timestep


start timestep kper="1" kstp="258" mode="normal"


end timestep


start timestep kper="1" kstp="259" mode="normal"


end timestep


start timestep kper="1" kstp="260" mode="normal"


end timestep


start timestep kper="1" kstp="261" mode="normal"


end timestep


start timestep kper="1" kstp="262" mode="normal"


end timestep


start timestep kper="1" kstp="263" mode="normal"


end timestep


start timestep kper="1" kstp="264" mode="normal"


end timestep


start timestep kper="1" kstp="265" mode="normal"


end timestep


start timestep kper="1" kstp="266" mode="normal"


end timestep


start timestep kper="1" kstp="267" mode="normal"


end timestep


start timestep kper="1" kstp="268" mode="normal"


end timestep


start timestep kper="1" kstp="269" mode="normal"


end timestep


start timestep kper="1" kstp="270" mode="normal"


end timestep


start timestep kper="1" kstp="271" mode="normal"


end timestep


start timestep kper="1" kstp="272" mode="normal"


end timestep


start timestep kper="1" kstp="273" mode="normal"


end timestep


start timestep kper="1" kstp="274" mode="normal"


end timestep


start timestep kper="1" kstp="275" mode="normal"


end timestep


start timestep kper="1" kstp="276" mode="normal"


end timestep


start timestep kper="1" kstp="277" mode="normal"


end timestep


start timestep kper="1" kstp="278" mode="normal"


end timestep


start timestep kper="1" kstp="279" mode="normal"


end timestep


start timestep kper="1" kstp="280" mode="normal"


end timestep


start timestep kper="1" kstp="281" mode="normal"


end timestep


start timestep kper="1" kstp="282" mode="normal"


end timestep


start timestep kper="1" kstp="283" mode="normal"


end timestep


start timestep kper="1" kstp="284" mode="normal"


end timestep


start timestep kper="1" kstp="285" mode="normal"


end timestep


start timestep kper="1" kstp="286" mode="normal"


end timestep


start timestep kper="1" kstp="287" mode="normal"


end timestep


start timestep kper="1" kstp="288" mode="normal"


end timestep


start timestep kper="1" kstp="289" mode="normal"


end timestep


start timestep kper="1" kstp="290" mode="normal"


end timestep


start timestep kper="1" kstp="291" mode="normal"


end timestep


start timestep kper="1" kstp="292" mode="normal"


end timestep


start timestep kper="1" kstp="293" mode="normal"


end timestep


start timestep kper="1" kstp="294" mode="normal"


end timestep


start timestep kper="1" kstp="295" mode="normal"


end timestep


start timestep kper="1" kstp="296" mode="normal"


end timestep


start timestep kper="1" kstp="297" mode="normal"


end timestep


start timestep kper="1" kstp="298" mode="normal"


end timestep


start timestep kper="1" kstp="299" mode="normal"


end timestep


start timestep kper="1" kstp="300" mode="normal"


end timestep


start timestep kper="1" kstp="301" mode="normal"


end timestep


start timestep kper="1" kstp="302" mode="normal"


end timestep


start timestep kper="1" kstp="303" mode="normal"


end timestep


start timestep kper="1" kstp="304" mode="normal"


end timestep


start timestep kper="1" kstp="305" mode="normal"


end timestep


start timestep kper="1" kstp="306" mode="normal"


end timestep


start timestep kper="1" kstp="307" mode="normal"


end timestep


start timestep kper="1" kstp="308" mode="normal"


end timestep


start timestep kper="1" kstp="309" mode="normal"


end timestep


start timestep kper="1" kstp="310" mode="normal"


end timestep


start timestep kper="1" kstp="311" mode="normal"


end timestep


start timestep kper="1" kstp="312" mode="normal"


end timestep


start timestep kper="1" kstp="313" mode="normal"


end timestep


start timestep kper="1" kstp="314" mode="normal"


end timestep


start timestep kper="1" kstp="315" mode="normal"


end timestep


start timestep kper="1" kstp="316" mode="normal"


end timestep


start timestep kper="1" kstp="317" mode="normal"


end timestep


start timestep kper="1" kstp="318" mode="normal"


end timestep


start timestep kper="1" kstp="319" mode="normal"


end timestep


start timestep kper="1" kstp="320" mode="normal"


end timestep


start timestep kper="1" kstp="321" mode="normal"


end timestep


start timestep kper="1" kstp="322" mode="normal"


end timestep


start timestep kper="1" kstp="323" mode="normal"


end timestep


start timestep kper="1" kstp="324" mode="normal"


end timestep


start timestep kper="1" kstp="325" mode="normal"


end timestep


start timestep kper="1" kstp="326" mode="normal"


end timestep


start timestep kper="1" kstp="327" mode="normal"


end timestep


start timestep kper="1" kstp="328" mode="normal"


end timestep


start timestep kper="1" kstp="329" mode="normal"


end timestep


start timestep kper="1" kstp="330" mode="normal"


end timestep


start timestep kper="1" kstp="331" mode="normal"


end timestep


start timestep kper="1" kstp="332" mode="normal"


end timestep


start timestep kper="1" kstp="333" mode="normal"


end timestep


start timestep kper="1" kstp="334" mode="normal"


end timestep


start timestep kper="1" kstp="335" mode="normal"


end timestep


start timestep kper="1" kstp="336" mode="normal"


end timestep


start timestep kper="1" kstp="337" mode="normal"


end timestep


start timestep kper="1" kstp="338" mode="normal"


end timestep


start timestep kper="1" kstp="339" mode="normal"


end timestep


start timestep kper="1" kstp="340" mode="normal"


end timestep


start timestep kper="1" kstp="341" mode="normal"


end timestep


start timestep kper="1" kstp="342" mode="normal"


end timestep


start timestep kper="1" kstp="343" mode="normal"


end timestep


start timestep kper="1" kstp="344" mode="normal"


end timestep


start timestep kper="1" kstp="345" mode="normal"


end timestep


start timestep kper="1" kstp="346" mode="normal"


end timestep


start timestep kper="1" kstp="347" mode="normal"


end timestep


start timestep kper="1" kstp="348" mode="normal"


end timestep


start timestep kper="1" kstp="349" mode="normal"


end timestep


start timestep kper="1" kstp="350" mode="normal"


end timestep


start timestep kper="1" kstp="351" mode="normal"


end timestep


start timestep kper="1" kstp="352" mode="normal"


end timestep


start timestep kper="1" kstp="353" mode="normal"


end timestep


start timestep kper="1" kstp="354" mode="normal"


end timestep


start timestep kper="1" kstp="355" mode="normal"


end timestep


start timestep kper="1" kstp="356" mode="normal"


end timestep


start timestep kper="1" kstp="357" mode="normal"


end timestep


start timestep kper="1" kstp="358" mode="normal"


end timestep


start timestep kper="1" kstp="359" mode="normal"


end timestep


start timestep kper="1" kstp="360" mode="normal"


end timestep


start timestep kper="1" kstp="361" mode="normal"


end timestep


start timestep kper="1" kstp="362" mode="normal"


end timestep


start timestep kper="1" kstp="363" mode="normal"


end timestep


start timestep kper="1" kstp="364" mode="normal"


end timestep


start timestep kper="1" kstp="365" mode="normal"


end timestep


start timestep kper="1" kstp="366" mode="normal"


end timestep


start timestep kper="1" kstp="367" mode="normal"


end timestep


start timestep kper="1" kstp="368" mode="normal"


end timestep


start timestep kper="1" kstp="369" mode="normal"


end timestep


start timestep kper="1" kstp="370" mode="normal"


end timestep


start timestep kper="1" kstp="371" mode="normal"


end timestep


start timestep kper="1" kstp="372" mode="normal"


end timestep


start timestep kper="1" kstp="373" mode="normal"


end timestep


start timestep kper="1" kstp="374" mode="normal"


end timestep


start timestep kper="1" kstp="375" mode="normal"


end timestep


start timestep kper="1" kstp="376" mode="normal"


end timestep


start timestep kper="1" kstp="377" mode="normal"


end timestep


start timestep kper="1" kstp="378" mode="normal"


end timestep


start timestep kper="1" kstp="379" mode="normal"


end timestep


start timestep kper="1" kstp="380" mode="normal"


end timestep


start timestep kper="1" kstp="381" mode="normal"


end timestep


start timestep kper="1" kstp="382" mode="normal"


end timestep


start timestep kper="1" kstp="383" mode="normal"


end timestep


start timestep kper="1" kstp="384" mode="normal"


end timestep


start timestep kper="1" kstp="385" mode="normal"


end timestep


start timestep kper="1" kstp="386" mode="normal"


end timestep


start timestep kper="1" kstp="387" mode="normal"


end timestep


start timestep kper="1" kstp="388" mode="normal"


end timestep


start timestep kper="1" kstp="389" mode="normal"


end timestep


start timestep kper="1" kstp="390" mode="normal"


end timestep


start timestep kper="1" kstp="391" mode="normal"


end timestep


start timestep kper="1" kstp="392" mode="normal"


end timestep


start timestep kper="1" kstp="393" mode="normal"


end timestep


start timestep kper="1" kstp="394" mode="normal"


end timestep


start timestep kper="1" kstp="395" mode="normal"


end timestep


start timestep kper="1" kstp="396" mode="normal"


end timestep


start timestep kper="1" kstp="397" mode="normal"


end timestep


start timestep kper="1" kstp="398" mode="normal"


end timestep


start timestep kper="1" kstp="399" mode="normal"


end timestep


start timestep kper="1" kstp="400" mode="normal"


end timestep


start timestep kper="1" kstp="401" mode="normal"


end timestep


start timestep kper="1" kstp="402" mode="normal"


end timestep


start timestep kper="1" kstp="403" mode="normal"


end timestep


start timestep kper="1" kstp="404" mode="normal"


end timestep


start timestep kper="1" kstp="405" mode="normal"


end timestep


start timestep kper="1" kstp="406" mode="normal"


end timestep


start timestep kper="1" kstp="407" mode="normal"


end timestep


start timestep kper="1" kstp="408" mode="normal"


end timestep


start timestep kper="1" kstp="409" mode="normal"


end timestep


start timestep kper="1" kstp="410" mode="normal"


end timestep


start timestep kper="1" kstp="411" mode="normal"


end timestep


start timestep kper="1" kstp="412" mode="normal"


end timestep


start timestep kper="1" kstp="413" mode="normal"


end timestep


start timestep kper="1" kstp="414" mode="normal"


end timestep


start timestep kper="1" kstp="415" mode="normal"


end timestep


start timestep kper="1" kstp="416" mode="normal"


end timestep


start timestep kper="1" kstp="417" mode="normal"


end timestep


start timestep kper="1" kstp="418" mode="normal"


end timestep


start timestep kper="1" kstp="419" mode="normal"


end timestep


start timestep kper="1" kstp="420" mode="normal"


end timestep


start timestep kper="1" kstp="421" mode="normal"


end timestep


start timestep kper="1" kstp="422" mode="normal"


end timestep


start timestep kper="1" kstp="423" mode="normal"


end timestep


start timestep kper="1" kstp="424" mode="normal"


end timestep


start timestep kper="1" kstp="425" mode="normal"


end timestep


start timestep kper="1" kstp="426" mode="normal"


end timestep


start timestep kper="1" kstp="427" mode="normal"


end timestep


start timestep kper="1" kstp="428" mode="normal"


end timestep


start timestep kper="1" kstp="429" mode="normal"


end timestep


start timestep kper="1" kstp="430" mode="normal"


end timestep


start timestep kper="1" kstp="431" mode="normal"


end timestep


start timestep kper="1" kstp="432" mode="normal"


end timestep


start timestep kper="1" kstp="433" mode="normal"


end timestep


start timestep kper="1" kstp="434" mode="normal"


end timestep


start timestep kper="1" kstp="435" mode="normal"


end timestep


start timestep kper="1" kstp="436" mode="normal"


end timestep


start timestep kper="1" kstp="437" mode="normal"


end timestep


start timestep kper="1" kstp="438" mode="normal"


end timestep


start timestep kper="1" kstp="439" mode="normal"


end timestep


start timestep kper="1" kstp="440" mode="normal"


end timestep


start timestep kper="1" kstp="441" mode="normal"


end timestep


start timestep kper="1" kstp="442" mode="normal"


end timestep


start timestep kper="1" kstp="443" mode="normal"


end timestep


start timestep kper="1" kstp="444" mode="normal"


end timestep


start timestep kper="1" kstp="445" mode="normal"


end timestep


start timestep kper="1" kstp="446" mode="normal"


end timestep


start timestep kper="1" kstp="447" mode="normal"


end timestep


start timestep kper="1" kstp="448" mode="normal"


end timestep


start timestep kper="1" kstp="449" mode="normal"


end timestep


start timestep kper="1" kstp="450" mode="normal"


end timestep


start timestep kper="1" kstp="451" mode="normal"


end timestep


start timestep kper="1" kstp="452" mode="normal"


end timestep


start timestep kper="1" kstp="453" mode="normal"


end timestep


start timestep kper="1" kstp="454" mode="normal"


end timestep


start timestep kper="1" kstp="455" mode="normal"


end timestep


start timestep kper="1" kstp="456" mode="normal"


end timestep


start timestep kper="1" kstp="457" mode="normal"


end timestep


start timestep kper="1" kstp="458" mode="normal"


end timestep


start timestep kper="1" kstp="459" mode="normal"


end timestep


start timestep kper="1" kstp="460" mode="normal"


end timestep


start timestep kper="1" kstp="461" mode="normal"


end timestep


start timestep kper="1" kstp="462" mode="normal"


end timestep


start timestep kper="1" kstp="463" mode="normal"


end timestep


start timestep kper="1" kstp="464" mode="normal"


end timestep


start timestep kper="1" kstp="465" mode="normal"


end timestep


start timestep kper="1" kstp="466" mode="normal"


end timestep


start timestep kper="1" kstp="467" mode="normal"


end timestep


start timestep kper="1" kstp="468" mode="normal"


end timestep


start timestep kper="1" kstp="469" mode="normal"


end timestep


start timestep kper="1" kstp="470" mode="normal"


end timestep


start timestep kper="1" kstp="471" mode="normal"


end timestep


start timestep kper="1" kstp="472" mode="normal"


end timestep


start timestep kper="1" kstp="473" mode="normal"


end timestep


start timestep kper="1" kstp="474" mode="normal"


end timestep


start timestep kper="1" kstp="475" mode="normal"


end timestep


start timestep kper="1" kstp="476" mode="normal"


end timestep


start timestep kper="1" kstp="477" mode="normal"


end timestep


start timestep kper="1" kstp="478" mode="normal"


end timestep


start timestep kper="1" kstp="479" mode="normal"


end timestep


start timestep kper="1" kstp="480" mode="normal"


end timestep


start timestep kper="1" kstp="481" mode="normal"


end timestep


start timestep kper="1" kstp="482" mode="normal"


end timestep


start timestep kper="1" kstp="483" mode="normal"


end timestep


start timestep kper="1" kstp="484" mode="normal"


end timestep


start timestep kper="1" kstp="485" mode="normal"


end timestep


start timestep kper="1" kstp="486" mode="normal"


end timestep


start timestep kper="1" kstp="487" mode="normal"


end timestep


start timestep kper="1" kstp="488" mode="normal"


end timestep


start timestep kper="1" kstp="489" mode="normal"


end timestep


start timestep kper="1" kstp="490" mode="normal"


end timestep


start timestep kper="1" kstp="491" mode="normal"


end timestep


start timestep kper="1" kstp="492" mode="normal"


end timestep


start timestep kper="1" kstp="493" mode="normal"


end timestep


start timestep kper="1" kstp="494" mode="normal"


end timestep


start timestep kper="1" kstp="495" mode="normal"


end timestep


start timestep kper="1" kstp="496" mode="normal"


end timestep


start timestep kper="1" kstp="497" mode="normal"


end timestep


start timestep kper="1" kstp="498" mode="normal"


end timestep


start timestep kper="1" kstp="499" mode="normal"


end timestep


start timestep kper="1" kstp="500" mode="normal"


end timestep


start timestep kper="1" kstp="501" mode="normal"


end timestep


start timestep kper="1" kstp="502" mode="normal"


end timestep


start timestep kper="1" kstp="503" mode="normal"


end timestep


start timestep kper="1" kstp="504" mode="normal"


end timestep


start timestep kper="1" kstp="505" mode="normal"


end timestep


start timestep kper="1" kstp="506" mode="normal"


end timestep


start timestep kper="1" kstp="507" mode="normal"


end timestep


start timestep kper="1" kstp="508" mode="normal"


end timestep


start timestep kper="1" kstp="509" mode="normal"


end timestep


start timestep kper="1" kstp="510" mode="normal"


end timestep


start timestep kper="1" kstp="511" mode="normal"


end timestep


start timestep kper="1" kstp="512" mode="normal"


end timestep


start timestep kper="1" kstp="513" mode="normal"


end timestep


start timestep kper="1" kstp="514" mode="normal"


end timestep


start timestep kper="1" kstp="515" mode="normal"


end timestep


start timestep kper="1" kstp="516" mode="normal"


end timestep


start timestep kper="1" kstp="517" mode="normal"


end timestep


start timestep kper="1" kstp="518" mode="normal"


end timestep


start timestep kper="1" kstp="519" mode="normal"


end timestep


start timestep kper="1" kstp="520" mode="normal"


end timestep


start timestep kper="1" kstp="521" mode="normal"


end timestep


start timestep kper="1" kstp="522" mode="normal"


end timestep


start timestep kper="1" kstp="523" mode="normal"


end timestep


start timestep kper="1" kstp="524" mode="normal"


end timestep


start timestep kper="1" kstp="525" mode="normal"


end timestep


start timestep kper="1" kstp="526" mode="normal"


end timestep


start timestep kper="1" kstp="527" mode="normal"


end timestep


start timestep kper="1" kstp="528" mode="normal"


end timestep


start timestep kper="1" kstp="529" mode="normal"


end timestep


start timestep kper="1" kstp="530" mode="normal"


end timestep


start timestep kper="1" kstp="531" mode="normal"


end timestep


start timestep kper="1" kstp="532" mode="normal"


end timestep


start timestep kper="1" kstp="533" mode="normal"


end timestep


start timestep kper="1" kstp="534" mode="normal"


end timestep


start timestep kper="1" kstp="535" mode="normal"


end timestep


start timestep kper="1" kstp="536" mode="normal"


end timestep


start timestep kper="1" kstp="537" mode="normal"


end timestep


start timestep kper="1" kstp="538" mode="normal"


end timestep


start timestep kper="1" kstp="539" mode="normal"


end timestep


start timestep kper="1" kstp="540" mode="normal"


end timestep


start timestep kper="1" kstp="541" mode="normal"


end timestep


start timestep kper="1" kstp="542" mode="normal"


end timestep


start timestep kper="1" kstp="543" mode="normal"


end timestep


start timestep kper="1" kstp="544" mode="normal"


end timestep


start timestep kper="1" kstp="545" mode="normal"


end timestep


start timestep kper="1" kstp="546" mode="normal"


end timestep


start timestep kper="1" kstp="547" mode="normal"


end timestep


start timestep kper="1" kstp="548" mode="normal"


end timestep


start timestep kper="1" kstp="549" mode="normal"


end timestep


start timestep kper="1" kstp="550" mode="normal"


end timestep


start timestep kper="1" kstp="551" mode="normal"


end timestep


start timestep kper="1" kstp="552" mode="normal"


end timestep


start timestep kper="1" kstp="553" mode="normal"


end timestep


start timestep kper="1" kstp="554" mode="normal"


end timestep


start timestep kper="1" kstp="555" mode="normal"


end timestep


start timestep kper="1" kstp="556" mode="normal"


end timestep


start timestep kper="1" kstp="557" mode="normal"


end timestep


start timestep kper="1" kstp="558" mode="normal"


end timestep


start timestep kper="1" kstp="559" mode="normal"


end timestep


start timestep kper="1" kstp="560" mode="normal"


end timestep


start timestep kper="1" kstp="561" mode="normal"


end timestep


start timestep kper="1" kstp="562" mode="normal"


end timestep


start timestep kper="1" kstp="563" mode="normal"


end timestep


start timestep kper="1" kstp="564" mode="normal"


end timestep


start timestep kper="1" kstp="565" mode="normal"


end timestep


start timestep kper="1" kstp="566" mode="normal"


end timestep


start timestep kper="1" kstp="567" mode="normal"


end timestep


start timestep kper="1" kstp="568" mode="normal"


end timestep


start timestep kper="1" kstp="569" mode="normal"


end timestep


start timestep kper="1" kstp="570" mode="normal"


end timestep


start timestep kper="1" kstp="571" mode="normal"


end timestep


start timestep kper="1" kstp="572" mode="normal"


end timestep


start timestep kper="1" kstp="573" mode="normal"


end timestep


start timestep kper="1" kstp="574" mode="normal"


end timestep


start timestep kper="1" kstp="575" mode="normal"


end timestep


start timestep kper="1" kstp="576" mode="normal"


end timestep


start timestep kper="1" kstp="577" mode="normal"


end timestep


start timestep kper="1" kstp="578" mode="normal"


end timestep


start timestep kper="1" kstp="579" mode="normal"


end timestep


start timestep kper="1" kstp="580" mode="normal"


end timestep


start timestep kper="1" kstp="581" mode="normal"


end timestep


start timestep kper="1" kstp="582" mode="normal"


end timestep


start timestep kper="1" kstp="583" mode="normal"


end timestep


start timestep kper="1" kstp="584" mode="normal"


end timestep


start timestep kper="1" kstp="585" mode="normal"


end timestep


start timestep kper="1" kstp="586" mode="normal"


end timestep


start timestep kper="1" kstp="587" mode="normal"


end timestep


start timestep kper="1" kstp="588" mode="normal"


end timestep


start timestep kper="1" kstp="589" mode="normal"


end timestep


start timestep kper="1" kstp="590" mode="normal"


end timestep


start timestep kper="1" kstp="591" mode="normal"


end timestep


start timestep kper="1" kstp="592" mode="normal"


end timestep


start timestep kper="1" kstp="593" mode="normal"


end timestep


start timestep kper="1" kstp="594" mode="normal"


end timestep


start timestep kper="1" kstp="595" mode="normal"


end timestep


start timestep kper="1" kstp="596" mode="normal"


end timestep


start timestep kper="1" kstp="597" mode="normal"


end timestep


start timestep kper="1" kstp="598" mode="normal"


end timestep


start timestep kper="1" kstp="599" mode="normal"


end timestep


start timestep kper="1" kstp="600" mode="normal"


end timestep


start timestep kper="1" kstp="601" mode="normal"


end timestep


start timestep kper="1" kstp="602" mode="normal"


end timestep


start timestep kper="1" kstp="603" mode="normal"


end timestep


start timestep kper="1" kstp="604" mode="normal"


end timestep


start timestep kper="1" kstp="605" mode="normal"


end timestep


start timestep kper="1" kstp="606" mode="normal"


end timestep


start timestep kper="1" kstp="607" mode="normal"


end timestep


start timestep kper="1" kstp="608" mode="normal"


end timestep


start timestep kper="1" kstp="609" mode="normal"


end timestep


start timestep kper="1" kstp="610" mode="normal"


end timestep


start timestep kper="1" kstp="611" mode="normal"


end timestep


start timestep kper="1" kstp="612" mode="normal"


end timestep


start timestep kper="1" kstp="613" mode="normal"


end timestep


start timestep kper="1" kstp="614" mode="normal"


end timestep


start timestep kper="1" kstp="615" mode="normal"


end timestep


start timestep kper="1" kstp="616" mode="normal"


end timestep


start timestep kper="1" kstp="617" mode="normal"


end timestep


start timestep kper="1" kstp="618" mode="normal"


end timestep


start timestep kper="1" kstp="619" mode="normal"


end timestep


start timestep kper="1" kstp="620" mode="normal"


end timestep


start timestep kper="1" kstp="621" mode="normal"


end timestep


start timestep kper="1" kstp="622" mode="normal"


end timestep


start timestep kper="1" kstp="623" mode="normal"


end timestep


start timestep kper="1" kstp="624" mode="normal"


end timestep


start timestep kper="1" kstp="625" mode="normal"


end timestep


start timestep kper="1" kstp="626" mode="normal"


end timestep


start timestep kper="1" kstp="627" mode="normal"


end timestep


start timestep kper="1" kstp="628" mode="normal"


end timestep


start timestep kper="1" kstp="629" mode="normal"


end timestep


start timestep kper="1" kstp="630" mode="normal"


end timestep


start timestep kper="1" kstp="631" mode="normal"


end timestep


start timestep kper="1" kstp="632" mode="normal"


end timestep


start timestep kper="1" kstp="633" mode="normal"


end timestep


start timestep kper="1" kstp="634" mode="normal"


end timestep


start timestep kper="1" kstp="635" mode="normal"


end timestep


start timestep kper="1" kstp="636" mode="normal"


end timestep


start timestep kper="1" kstp="637" mode="normal"


end timestep


start timestep kper="1" kstp="638" mode="normal"


end timestep


start timestep kper="1" kstp="639" mode="normal"


end timestep


start timestep kper="1" kstp="640" mode="normal"


end timestep


start timestep kper="1" kstp="641" mode="normal"


end timestep


start timestep kper="1" kstp="642" mode="normal"


end timestep


start timestep kper="1" kstp="643" mode="normal"


end timestep


start timestep kper="1" kstp="644" mode="normal"


end timestep


start timestep kper="1" kstp="645" mode="normal"


end timestep


start timestep kper="1" kstp="646" mode="normal"


end timestep


start timestep kper="1" kstp="647" mode="normal"


end timestep


start timestep kper="1" kstp="648" mode="normal"


end timestep


start timestep kper="1" kstp="649" mode="normal"


end timestep


start timestep kper="1" kstp="650" mode="normal"


end timestep


start timestep kper="1" kstp="651" mode="normal"


end timestep


start timestep kper="1" kstp="652" mode="normal"


end timestep


start timestep kper="1" kstp="653" mode="normal"


end timestep


start timestep kper="1" kstp="654" mode="normal"


end timestep


start timestep kper="1" kstp="655" mode="normal"


end timestep


start timestep kper="1" kstp="656" mode="normal"


end timestep


start timestep kper="1" kstp="657" mode="normal"


end timestep


start timestep kper="1" kstp="658" mode="normal"


end timestep


start timestep kper="1" kstp="659" mode="normal"


end timestep


start timestep kper="1" kstp="660" mode="normal"


end timestep


start timestep kper="1" kstp="661" mode="normal"


end timestep


start timestep kper="1" kstp="662" mode="normal"


end timestep


start timestep kper="1" kstp="663" mode="normal"


end timestep


start timestep kper="1" kstp="664" mode="normal"


end timestep


start timestep kper="1" kstp="665" mode="normal"


end timestep


start timestep kper="1" kstp="666" mode="normal"


end timestep


start timestep kper="1" kstp="667" mode="normal"


end timestep


start timestep kper="1" kstp="668" mode="normal"


end timestep


start timestep kper="1" kstp="669" mode="normal"


end timestep


start timestep kper="1" kstp="670" mode="normal"


end timestep


start timestep kper="1" kstp="671" mode="normal"


end timestep


start timestep kper="1" kstp="672" mode="normal"


end timestep


start timestep kper="1" kstp="673" mode="normal"


end timestep


start timestep kper="1" kstp="674" mode="normal"


end timestep


start timestep kper="1" kstp="675" mode="normal"


end timestep


start timestep kper="1" kstp="676" mode="normal"


end timestep


start timestep kper="1" kstp="677" mode="normal"


end timestep


start timestep kper="1" kstp="678" mode="normal"


end timestep


start timestep kper="1" kstp="679" mode="normal"


end timestep


start timestep kper="1" kstp="680" mode="normal"


end timestep


start timestep kper="1" kstp="681" mode="normal"


end timestep


start timestep kper="1" kstp="682" mode="normal"


end timestep


start timestep kper="1" kstp="683" mode="normal"


end timestep


start timestep kper="1" kstp="684" mode="normal"


end timestep


start timestep kper="1" kstp="685" mode="normal"


end timestep


start timestep kper="1" kstp="686" mode="normal"


end timestep


start timestep kper="1" kstp="687" mode="normal"


end timestep


start timestep kper="1" kstp="688" mode="normal"


end timestep


start timestep kper="1" kstp="689" mode="normal"


end timestep


start timestep kper="1" kstp="690" mode="normal"


end timestep


start timestep kper="1" kstp="691" mode="normal"


end timestep


start timestep kper="1" kstp="692" mode="normal"


end timestep


start timestep kper="1" kstp="693" mode="normal"


end timestep


start timestep kper="1" kstp="694" mode="normal"


end timestep


start timestep kper="1" kstp="695" mode="normal"


end timestep


start timestep kper="1" kstp="696" mode="normal"


end timestep


start timestep kper="1" kstp="697" mode="normal"


end timestep


start timestep kper="1" kstp="698" mode="normal"


end timestep


start timestep kper="1" kstp="699" mode="normal"


end timestep


start timestep kper="1" kstp="700" mode="normal"


end timestep


start timestep kper="1" kstp="701" mode="normal"


end timestep


start timestep kper="1" kstp="702" mode="normal"


end timestep


start timestep kper="1" kstp="703" mode="normal"


end timestep


start timestep kper="1" kstp="704" mode="normal"


end timestep


start timestep kper="1" kstp="705" mode="normal"


end timestep


start timestep kper="1" kstp="706" mode="normal"


end timestep


start timestep kper="1" kstp="707" mode="normal"


end timestep


start timestep kper="1" kstp="708" mode="normal"


end timestep


start timestep kper="1" kstp="709" mode="normal"


end timestep


start timestep kper="1" kstp="710" mode="normal"


end timestep


start timestep kper="1" kstp="711" mode="normal"


end timestep


start timestep kper="1" kstp="712" mode="normal"


end timestep


start timestep kper="1" kstp="713" mode="normal"


end timestep


start timestep kper="1" kstp="714" mode="normal"


end timestep


start timestep kper="1" kstp="715" mode="normal"


end timestep


start timestep kper="1" kstp="716" mode="normal"


end timestep


start timestep kper="1" kstp="717" mode="normal"


end timestep


start timestep kper="1" kstp="718" mode="normal"


end timestep


start timestep kper="1" kstp="719" mode="normal"


end timestep


start timestep kper="1" kstp="720" mode="normal"


end timestep


start timestep kper="1" kstp="721" mode="normal"


end timestep


start timestep kper="1" kstp="722" mode="normal"


end timestep


start timestep kper="1" kstp="723" mode="normal"


end timestep


start timestep kper="1" kstp="724" mode="normal"


end timestep


start timestep kper="1" kstp="725" mode="normal"


end timestep


start timestep kper="1" kstp="726" mode="normal"


end timestep


start timestep kper="1" kstp="727" mode="normal"


end timestep


start timestep kper="1" kstp="728" mode="normal"

 UBDSV1 SAVING  STORAGE-AQUEOUS ON UNIT   1028 AT TIME STEP    728, STRESS PERIOD      1
 UBDSV1 SAVING     FLOW-JA-FACE ON UNIT   1028 AT TIME STEP    728, STRESS PERIOD      1
 UBDSV06 SAVING  SOURCE-SINK MIX IN MODEL GWT_P03-MF6      PACKAGE GWT_P03-MF6     CONNECTED TO MODEL GWT_P03-MF6      PACKAGE SSM              ON UNIT   1028 AT TIME STEP    728, STRESS PERIOD      1
 UBDSV06 SAVING              CNC IN MODEL GWT_P03-MF6      PACKAGE GWT_P03-MF6     CONNECTED TO MODEL GWT_P03-MF6      PACKAGE CNC-1            ON UNIT   1028 AT TIME STEP    728, STRESS PERIOD      1
1
  CONCENTRATION IN LAYER   1 AT END OF TIME STEP 728 IN STRESS PERIOD    1
  ---------------------------------------------------------------------------

                1               2               3               4               5               6               7               8               9              10
               11              12              13              14              15              16              17              18              19              20
               21              22              23              24              25              26              27              28              29              30
               31              32              33              34              35              36              37              38              39              40
               41              42              43              44              45              46
 ................................................................................................................................................................................................................................................................................................................................................................................................................................................................................................................................................................................................................................................................................................................................................................
   1      0.00000        3.376458E-75    1.423826E-72    5.591807E-70    2.033373E-67    6.799441E-65    2.073797E-62    5.711935E-60    1.403404E-57    3.028170E-55
         5.621845E-53    8.731833E-51    1.089430E-48    1.023801E-46    6.443531E-45    2.038455E-43    1.302304E-44    4.181684E-46    8.991071E-48    1.455784E-49
         1.892924E-51    2.058569E-53    1.925562E-55    1.581250E-57    1.157917E-59    7.654744E-62    4.613993E-64    2.556676E-66    1.311330E-68    6.262167E-71
         2.798331E-73    1.175267E-75    4.656991E-78    1.746958E-80    6.222767E-83    2.110512E-85    6.832186E-88    2.115743E-90    6.280236E-93    1.790200E-95
         4.908816E-98    1.296823-100    3.305528-103    8.140274-106    1.939170-108    4.478789-111
   2     1.112285E-74    5.012869E-72    2.119251E-69    8.345098E-67    3.043050E-64    1.020575E-61    3.122442E-59    8.628872E-57    2.127616E-54    4.608282E-52
         8.590259E-50    1.340091E-47    1.679869E-45    1.586714E-43    1.004132E-41    3.195548E-40    2.030191E-41    6.485291E-43    1.387702E-44    2.236785E-46
         2.896175E-48    3.137125E-50    2.923468E-52    2.392252E-54    1.745949E-56    1.150554E-58    6.914225E-61    3.820265E-63    1.954051E-65    9.306889E-68
         4.148392E-70    1.738034E-72    6.870766E-75    2.571538E-77    9.139753E-80    3.093189E-82    9.992409E-85    3.088075E-87    9.148198E-90    2.602642E-92
         7.122950E-95    1.878234E-97    4.778703-100    1.174686-102    2.793343-105    6.440285-108
   3     1.541551E-71    6.964645E-69    2.951967E-66    1.165553E-63    4.262316E-61    1.433810E-58    4.400845E-56    1.220362E-53    3.020174E-51    6.567617E-49
         1.229551E-46    1.927100E-44    2.428011E-42    2.306075E-40    1.468184E-38    4.703162E-37    2.969694E-38    9.432982E-40    2.007926E-41    3.220863E-43
         4.151604E-45    4.478132E-47    4.156758E-49    3.388908E-51    2.464763E-53    1.618922E-55    9.698685E-58    5.342945E-60    2.725219E-62    1.294499E-64
         5.755155E-67    2.405241E-69    9.485650E-72    3.542023E-74    1.256089E-76    4.241780E-79    1.367393E-81    4.217116E-84    1.246777E-86    3.540074E-89
         9.669859E-92    2.545003E-94    6.463116E-97    1.585844E-99    3.764285-102    8.663506-105
   4     1.988032E-68    9.004269E-66    3.826429E-63    1.514979E-60    5.556254E-58    1.874872E-55    5.773709E-53    1.606780E-50    3.991867E-48    8.717153E-46
         1.639469E-43    2.582493E-41    3.271725E-39    3.126285E-37    2.003693E-35    6.465992E-34    4.054884E-35    1.279985E-36    2.709093E-38    4.322852E-40
         5.545148E-42    5.954565E-44    5.504303E-46    4.470176E-48    3.239407E-50    2.120497E-52    1.266282E-54    6.954702E-57    3.537085E-59    1.675524E-61
         7.429544E-64    3.097178E-66    1.218479E-68    4.539230E-71    1.606068E-73    5.411705E-76    1.740797E-78    5.357514E-81    1.580707E-83    4.479297E-86
         1.221155E-88    3.207809E-91    8.131058E-94    1.991428E-96    4.718445E-99    1.084010-101
   5     2.371826E-65    1.076980E-62    4.588852E-60    1.821933E-57    6.701915E-55    2.268658E-52    7.010326E-50    1.958168E-47    4.884564E-45    1.071398E-42
         2.024896E-40    3.206929E-38    4.087299E-36    3.931805E-34    2.538816E-32    8.261335E-31    5.140799E-32    1.611508E-33    3.389344E-35    5.377440E-37
         6.861962E-39    7.333377E-41    6.749008E-43    5.458702E-45    3.940784E-47    2.570490E-49    1.529906E-51    8.376290E-54    4.247464E-56    2.006362E-58
         8.872604E-61    3.689220E-63    1.447802E-65    5.380655E-68    1.899386E-70    6.385729E-73    2.049649E-75    6.294699E-78    1.853387E-80    5.241409E-83
         1.426105E-85    3.738945E-88    9.459396E-91    2.312445E-93    5.469021E-96    1.254179E-98
   6     2.599955E-62    1.183610E-59    5.056832E-57    2.013486E-54    7.429145E-52    2.523074E-49    7.824152E-47    2.193949E-44    5.495995E-42    1.211192E-39
         2.301126E-37    3.665865E-35    4.703179E-33    4.558084E-31    2.968105E-29    9.750852E-28    6.014140E-29    1.870512E-30    3.906568E-32    6.159117E-34
         7.814868E-36    8.308779E-38    7.610790E-40    6.129211E-42    4.407252E-44    2.864146E-46    1.698809E-48    9.270947E-51    4.686774E-53    2.207468E-55
         9.735026E-58    4.037143E-60    1.580334E-62    5.858895E-65    2.063342E-67    6.921155E-70    2.216598E-72    6.792787E-75    1.995853E-77    5.632764E-80
         1.529522E-82    4.002232E-85    1.010606E-87    2.465872E-90    5.821079E-93    1.332479E-95
   7     2.597365E-59    1.185542E-56    5.079103E-54    2.028291E-51    7.507260E-49    2.558231E-46    7.962375E-44    2.241731E-41    5.640848E-39    1.249343E-36
         2.387025E-34    3.827130E-32    4.946103E-30    4.833861E-28    3.178163E-26    1.055755E-24    6.444914E-26    1.986539E-27    4.116206E-29    6.444381E-31
         8.126035E-33    8.591504E-35    7.830202E-37    6.277082E-39    4.494677E-41    2.909676E-43    1.719620E-45    9.353033E-48    4.713353E-50    2.213365E-52
         9.733372E-55    4.025543E-57    1.571712E-59    5.812421E-62    2.042061E-64    6.833865E-67    2.183715E-69    6.677378E-72    1.957764E-74    5.513790E-77
         1.494176E-79    3.901976E-82    9.833721E-85    2.394838E-87    5.642783E-90    1.289281E-92
   8     2.341506E-56    1.071643E-53    4.604191E-51    1.844199E-48    6.848012E-46    2.341765E-43    7.316564E-41    2.068630E-38    5.229893E-36    1.164515E-33
         2.238538E-31    3.614341E-29    4.709359E-27    4.646574E-25    3.089384E-23    1.039860E-21    6.270804E-23    1.912773E-24    3.927771E-26    6.101316E-28
         7.640725E-30    8.029425E-32    7.278340E-34    5.806251E-36    4.139130E-38    2.668632E-40    1.571248E-42    8.516197E-45    4.277600E-47    2.002543E-49
         8.780543E-52    3.621367E-54    1.410146E-56    5.201613E-59    1.822975E-61    6.086197E-64    1.940331E-66    5.919916E-69    1.731913E-71    4.867390E-74
         1.316284E-76    3.430476E-79    8.628353E-82    2.097216E-84    4.932112E-87    1.124795E-89
   9     1.881682E-53    8.635945E-51    3.721251E-48    1.495212E-45    5.570827E-43    1.911977E-40    5.997700E-38    1.703297E-35    4.327852E-33    9.691778E-31
         1.875386E-28    3.051531E-26    4.012694E-24    4.002874E-22    2.696751E-20    9.222829E-19    5.480029E-20    1.651026E-21    3.355117E-23    5.165671E-25
         6.419714E-27    6.701508E-29    6.039087E-31    4.792504E-33    3.400383E-35    2.182946E-37    1.280222E-39    6.913511E-42    3.460756E-44    1.614954E-46
         7.059652E-49    2.903249E-51    1.127413E-53    4.147767E-56    1.449969E-58    4.829084E-61    1.535927E-63    4.675385E-66    1.364783E-68    3.827317E-71
         1.032838E-73    2.686225E-76    6.742809E-79    1.635682E-81    3.839263E-84    8.739000E-87
  10     1.327241E-50    6.109030E-48    2.640478E-45    1.064430E-42    3.979830E-40    1.371173E-37    4.319429E-35    1.232469E-32    3.148285E-30    7.093701E-28
         1.382573E-25    2.269064E-23    3.015009E-21    3.046357E-19    2.085160E-17    7.273836E-16    4.243007E-17    1.259395E-18    2.528135E-20    3.853020E-22
         4.747487E-24    4.919590E-26    4.405062E-28    3.476119E-30    2.453980E-32    1.568217E-34    9.158802E-37    4.926997E-39    2.457547E-41    1.142975E-43
         4.980691E-46    2.042172E-48    7.907794E-51    2.901386E-53    1.011618E-55    3.360717E-58    1.066313E-60    3.238265E-63    9.431263E-66    2.639001E-68
         7.106261E-71    1.844327E-73    4.620018E-76    1.118479E-78    2.620119E-81    5.952430E-84
  11     8.051412E-48    3.717223E-45    1.611880E-42    6.520338E-40    2.447030E-37    8.465179E-35    2.678696E-32    7.681767E-30    1.973565E-27    4.476572E-25
         8.794218E-23    1.457235E-20    1.959550E-18    2.010120E-16    1.402977E-14    5.020152E-13    2.859610E-14    8.332521E-16    1.648429E-17    2.482853E-19
         3.029657E-21    3.113920E-23    2.768748E-25    2.171528E-27    1.524694E-29    9.696114E-32    5.637713E-34    3.020487E-36    1.500920E-38    6.956059E-41
         3.021204E-43    1.234885E-45    4.767623E-48    1.744314E-50    6.065418E-53    2.009777E-55    6.360829E-58    1.927043E-60    5.599275E-63    1.563200E-65
         4.200066E-68    1.087721E-70    2.719008E-73    6.569050E-76    1.535756E-78    3.482081E-81
  12     4.085243E-45    1.892231E-42    8.233577E-40    3.343004E-37    1.259654E-34    4.376810E-32    1.391749E-29    4.013075E-27    1.037507E-24    2.370667E-22
         4.698338E-20    7.870401E-18    1.073096E-15    1.121013E-13    8.019108E-12    2.968699E-10    1.637825E-11    4.661563E-13    9.059600E-15    1.345775E-16
         1.623967E-18    1.653838E-20    1.459097E-22    1.136687E-24    7.933875E-27    5.018854E-29    2.904258E-31    1.549226E-33    7.667418E-36    3.540240E-38
         1.532260E-40    6.242393E-43    2.402570E-45    8.764263E-48    3.038973E-50    1.004248E-52    3.170147E-55    9.580111E-58    2.776905E-60    7.734402E-63
         2.073390E-65    5.357742E-68    1.336407E-70    3.221940E-73    7.516994E-76    1.700927E-78
  13     1.665022E-42    7.739222E-40    3.380169E-37    1.377979E-34    5.215174E-32    1.820866E-29    5.821329E-27    1.688824E-24    4.396865E-22    1.012996E-19
         2.027788E-17    3.439666E-15    4.767189E-13    5.092673E-11    3.761635E-09    1.461065E-07    7.701749E-09    2.125287E-10    4.040130E-12    5.902729E-14
         7.030913E-16    7.085077E-18    6.195946E-20    4.790618E-22    3.321885E-24    2.089198E-26    1.202668E-28    6.385145E-31    3.146468E-33    1.446999E-35
         6.239500E-38    2.533105E-40    9.717418E-43    3.533776E-45    1.221703E-47    4.025810E-50    1.267409E-52    3.820133E-55    1.104537E-57    3.068979E-60
         8.207841E-63    2.116121E-65    5.266656E-68    1.266998E-70    2.949764E-73    6.660904E-76
  14     5.112510E-40    2.385482E-37    1.046188E-34    4.284128E-32    1.629394E-29    5.720117E-27    1.839963E-24    5.375294E-22    1.410842E-19    3.281865E-17
         6.647297E-15    1.144541E-12    1.618256E-10    1.778515E-08    1.372120E-06    5.732101E-05    2.817141E-06    7.450263E-08    1.376625E-09    1.970511E-11
         2.310727E-13    2.299720E-15    1.990635E-17    1.525894E-19    1.050236E-21    6.562237E-24    3.755809E-26    1.983657E-28    9.728881E-31    4.454733E-33
         1.913195E-35    7.738179E-38    2.958114E-40    1.072185E-42    3.695212E-45    1.214050E-47    3.811260E-50    1.145646E-52    3.303836E-55    9.156706E-58
         2.442971E-60    6.283580E-63    1.560303E-65    3.745280E-68    8.700721E-71    1.960570E-73
  15     1.051768E-37    4.928434E-35    2.171445E-32    8.937254E-30    3.418295E-27    1.207610E-24    3.912399E-22    1.152474E-19    3.054503E-17    7.189331E-15
         1.477620E-12    2.592825E-10    3.762303E-08    4.296987E-06    3.533245E-04    1.669275E-02    7.269550E-04    1.806007E-05    3.210310E-07    4.474078E-09
         5.143863E-11    5.041432E-13    4.310319E-15    3.270420E-17    2.231545E-19    1.383960E-21    7.869120E-24    4.131949E-26    2.015908E-28    9.186624E-31
         3.928181E-33    1.582386E-35    6.026315E-38    2.176574E-40    7.476518E-43    2.448671E-45    7.664144E-48    2.297240E-50    6.606748E-53    1.826285E-55
         4.860147E-58    1.247031E-60    3.089242E-63    7.398274E-66    1.714873E-68    3.855796E-71
  16     1.087893E-35    5.122143E-33    2.268671E-30    9.392043E-28    3.615865E-25    1.286979E-22    4.205698E-20    1.251541E-17    3.357989E-15    8.024591E-13
         1.681738E-10    3.029276E-08    4.563830E-06    5.532256E-04    5.087797E-02     3.13947        0.104340        2.328751E-03    3.898868E-05    5.228570E-07
         5.851486E-09    5.621173E-11    4.731646E-13    3.545308E-15    2.394097E-17    1.471759E-19    8.305002E-22    4.331873E-24    2.100972E-26    9.523438E-29
         4.052558E-31    1.625270E-33    6.164342E-36    2.217964E-38    7.591585E-41    2.478031E-43    7.731474E-46    2.310449E-48    6.625668E-51    1.826485E-53
         4.847857E-56    1.240718E-58    3.066063E-61    7.325330E-64    1.694054E-66    3.800447E-69
  17     1.051768E-37    4.928434E-35    2.171445E-32    8.937254E-30    3.418295E-27    1.207610E-24    3.912399E-22    1.152474E-19    3.054503E-17    7.189331E-15
         1.477620E-12    2.592825E-10    3.762303E-08    4.296987E-06    3.533245E-04    1.669275E-02    7.269550E-04    1.806007E-05    3.210310E-07    4.474078E-09
         5.143863E-11    5.041432E-13    4.310319E-15    3.270420E-17    2.231545E-19    1.383960E-21    7.869120E-24    4.131949E-26    2.015908E-28    9.186624E-31
         3.928181E-33    1.582386E-35    6.026315E-38    2.176574E-40    7.476518E-43    2.448671E-45    7.664144E-48    2.297240E-50    6.606748E-53    1.826285E-55
         4.860147E-58    1.247031E-60    3.089242E-63    7.398274E-66    1.714873E-68    3.855796E-71
  18     5.112510E-40    2.385482E-37    1.046188E-34    4.284128E-32    1.629394E-29    5.720117E-27    1.839963E-24    5.375294E-22    1.410842E-19    3.281865E-17
         6.647297E-15    1.144541E-12    1.618256E-10    1.778515E-08    1.372120E-06    5.732101E-05    2.817141E-06    7.450263E-08    1.376625E-09    1.970511E-11
         2.310727E-13    2.299720E-15    1.990635E-17    1.525894E-19    1.050236E-21    6.562237E-24    3.755809E-26    1.983657E-28    9.728881E-31    4.454733E-33
         1.913195E-35    7.738179E-38    2.958114E-40    1.072185E-42    3.695212E-45    1.214050E-47    3.811260E-50    1.145646E-52    3.303836E-55    9.156706E-58
         2.442971E-60    6.283580E-63    1.560303E-65    3.745280E-68    8.700721E-71    1.960570E-73
  19     1.665022E-42    7.739222E-40    3.380169E-37    1.377979E-34    5.215174E-32    1.820866E-29    5.821329E-27    1.688824E-24    4.396865E-22    1.012996E-19
         2.027788E-17    3.439666E-15    4.767189E-13    5.092673E-11    3.761635E-09    1.461065E-07    7.701749E-09    2.125287E-10    4.040130E-12    5.902729E-14
         7.030913E-16    7.085077E-18    6.195946E-20    4.790618E-22    3.321885E-24    2.089198E-26    1.202668E-28    6.385145E-31    3.146468E-33    1.446999E-35
         6.239500E-38    2.533105E-40    9.717418E-43    3.533776E-45    1.221703E-47    4.025810E-50    1.267409E-52    3.820133E-55    1.104537E-57    3.068979E-60
         8.207841E-63    2.116121E-65    5.266656E-68    1.266998E-70    2.949764E-73    6.660904E-76
  20     4.085243E-45    1.892231E-42    8.233577E-40    3.343004E-37    1.259654E-34    4.376810E-32    1.391749E-29    4.013075E-27    1.037507E-24    2.370667E-22
         4.698338E-20    7.870401E-18    1.073096E-15    1.121013E-13    8.019108E-12    2.968699E-10    1.637825E-11    4.661563E-13    9.059600E-15    1.345775E-16
         1.623967E-18    1.653838E-20    1.459097E-22    1.136687E-24    7.933875E-27    5.018854E-29    2.904258E-31    1.549226E-33    7.667418E-36    3.540240E-38
         1.532260E-40    6.242393E-43    2.402570E-45    8.764263E-48    3.038973E-50    1.004248E-52    3.170147E-55    9.580111E-58    2.776905E-60    7.734402E-63
         2.073390E-65    5.357742E-68    1.336407E-70    3.221940E-73    7.516994E-76    1.700927E-78
  21     8.051412E-48    3.717223E-45    1.611880E-42    6.520338E-40    2.447030E-37    8.465179E-35    2.678696E-32    7.681767E-30    1.973565E-27    4.476572E-25
         8.794218E-23    1.457235E-20    1.959550E-18    2.010120E-16    1.402977E-14    5.020152E-13    2.859610E-14    8.332521E-16    1.648429E-17    2.482853E-19
         3.029657E-21    3.113920E-23    2.768748E-25    2.171528E-27    1.524694E-29    9.696114E-32    5.637713E-34    3.020487E-36    1.500920E-38    6.956059E-41
         3.021204E-43    1.234885E-45    4.767623E-48    1.744314E-50    6.065418E-53    2.009777E-55    6.360829E-58    1.927043E-60    5.599275E-63    1.563200E-65
         4.200066E-68    1.087721E-70    2.719008E-73    6.569050E-76    1.535756E-78    3.482081E-81
  22     1.327241E-50    6.109030E-48    2.640478E-45    1.064430E-42    3.979830E-40    1.371173E-37    4.319429E-35    1.232469E-32    3.148285E-30    7.093701E-28
         1.382573E-25    2.269064E-23    3.015009E-21    3.046357E-19    2.085160E-17    7.273836E-16    4.243007E-17    1.259395E-18    2.528135E-20    3.853020E-22
         4.747487E-24    4.919590E-26    4.405062E-28    3.476119E-30    2.453980E-32    1.568217E-34    9.158802E-37    4.926997E-39    2.457547E-41    1.142975E-43
         4.980691E-46    2.042172E-48    7.907794E-51    2.901386E-53    1.011618E-55    3.360717E-58    1.066313E-60    3.238265E-63    9.431263E-66    2.639001E-68
         7.106261E-71    1.844327E-73    4.620018E-76    1.118479E-78    2.620119E-81    5.952430E-84
  23     1.881682E-53    8.635945E-51    3.721251E-48    1.495212E-45    5.570827E-43    1.911977E-40    5.997700E-38    1.703297E-35    4.327852E-33    9.691778E-31
         1.875386E-28    3.051531E-26    4.012694E-24    4.002874E-22    2.696751E-20    9.222829E-19    5.480029E-20    1.651026E-21    3.355117E-23    5.165671E-25
         6.419714E-27    6.701508E-29    6.039087E-31    4.792504E-33    3.400383E-35    2.182946E-37    1.280222E-39    6.913511E-42    3.460756E-44    1.614954E-46
         7.059652E-49    2.903249E-51    1.127413E-53    4.147767E-56    1.449969E-58    4.829084E-61    1.535927E-63    4.675385E-66    1.364783E-68    3.827317E-71
         1.032838E-73    2.686225E-76    6.742809E-79    1.635682E-81    3.839263E-84    8.739000E-87
  24     2.341506E-56    1.071643E-53    4.604191E-51    1.844199E-48    6.848012E-46    2.341765E-43    7.316564E-41    2.068630E-38    5.229893E-36    1.164515E-33
         2.238538E-31    3.614341E-29    4.709359E-27    4.646574E-25    3.089384E-23    1.039860E-21    6.270804E-23    1.912773E-24    3.927771E-26    6.101316E-28
         7.640725E-30    8.029425E-32    7.278340E-34    5.806251E-36    4.139130E-38    2.668632E-40    1.571248E-42    8.516197E-45    4.277600E-47    2.002543E-49
         8.780543E-52    3.621367E-54    1.410146E-56    5.201613E-59    1.822975E-61    6.086197E-64    1.940331E-66    5.919916E-69    1.731913E-71    4.867390E-74
         1.316284E-76    3.430476E-79    8.628353E-82    2.097216E-84    4.932112E-87    1.124795E-89
  25     2.597365E-59    1.185542E-56    5.079103E-54    2.028291E-51    7.507260E-49    2.558231E-46    7.962375E-44    2.241731E-41    5.640848E-39    1.249343E-36
         2.387025E-34    3.827130E-32    4.946103E-30    4.833861E-28    3.178163E-26    1.055755E-24    6.444914E-26    1.986539E-27    4.116206E-29    6.444381E-31
         8.126035E-33    8.591504E-35    7.830202E-37    6.277082E-39    4.494677E-41    2.909676E-43    1.719620E-45    9.353033E-48    4.713353E-50    2.213365E-52
         9.733372E-55    4.025543E-57    1.571712E-59    5.812421E-62    2.042061E-64    6.833865E-67    2.183715E-69    6.677378E-72    1.957764E-74    5.513790E-77
         1.494176E-79    3.901976E-82    9.833721E-85    2.394838E-87    5.642783E-90    1.289281E-92
  26     2.599955E-62    1.183610E-59    5.056832E-57    2.013486E-54    7.429145E-52    2.523074E-49    7.824152E-47    2.193949E-44    5.495995E-42    1.211192E-39
         2.301126E-37    3.665865E-35    4.703179E-33    4.558084E-31    2.968105E-29    9.750852E-28    6.014140E-29    1.870512E-30    3.906568E-32    6.159117E-34
         7.814868E-36    8.308779E-38    7.610790E-40    6.129211E-42    4.407252E-44    2.864146E-46    1.698809E-48    9.270947E-51    4.686774E-53    2.207468E-55
         9.735026E-58    4.037143E-60    1.580334E-62    5.858895E-65    2.063342E-67    6.921155E-70    2.216598E-72    6.792787E-75    1.995853E-77    5.632764E-80
         1.529522E-82    4.002232E-85    1.010606E-87    2.465872E-90    5.821079E-93    1.332480E-95
  27     2.371826E-65    1.076980E-62    4.588852E-60    1.821933E-57    6.701915E-55    2.268658E-52    7.010326E-50    1.958168E-47    4.884564E-45    1.071398E-42
         2.024896E-40    3.206929E-38    4.087299E-36    3.931805E-34    2.538816E-32    8.261335E-31    5.140799E-32    1.611508E-33    3.389344E-35    5.377440E-37
         6.861962E-39    7.333377E-41    6.749008E-43    5.458702E-45    3.940784E-47    2.570490E-49    1.529906E-51    8.376290E-54    4.247464E-56    2.006362E-58
         8.872604E-61    3.689220E-63    1.447802E-65    5.380655E-68    1.899386E-70    6.385729E-73    2.049649E-75    6.294699E-78    1.853387E-80    5.241409E-83
         1.426105E-85    3.738945E-88    9.459397E-91    2.312445E-93    5.469021E-96    1.254179E-98
  28     1.988032E-68    9.004269E-66    3.826429E-63    1.514979E-60    5.556254E-58    1.874872E-55    5.773709E-53    1.606780E-50    3.991867E-48    8.717153E-46
         1.639469E-43    2.582493E-41    3.271725E-39    3.126285E-37    2.003693E-35    6.465992E-34    4.054884E-35    1.279985E-36    2.709093E-38    4.322852E-40
         5.545148E-42    5.954565E-44    5.504303E-46    4.470176E-48    3.239407E-50    2.120497E-52    1.266282E-54    6.954702E-57    3.537085E-59    1.675524E-61
         7.429544E-64    3.097178E-66    1.218479E-68    4.539230E-71    1.606068E-73    5.411705E-76    1.740797E-78    5.357514E-81    1.580707E-83    4.479297E-86
         1.221155E-88    3.207809E-91    8.131058E-94    1.991428E-96    4.718445E-99    1.084010-101
  29     1.541551E-71    6.964645E-69    2.951967E-66    1.165553E-63    4.262316E-61    1.433810E-58    4.400845E-56    1.220362E-53    3.020174E-51    6.567617E-49
         1.229551E-46    1.927100E-44    2.428011E-42    2.306075E-40    1.468184E-38    4.703162E-37    2.969694E-38    9.432982E-40    2.007926E-41    3.220863E-43
         4.151604E-45    4.478132E-47    4.156758E-49    3.388908E-51    2.464763E-53    1.618922E-55    9.698685E-58    5.342945E-60    2.725219E-62    1.294499E-64
         5.755155E-67    2.405241E-69    9.485650E-72    3.542023E-74    1.256089E-76    4.241780E-79    1.367393E-81    4.217116E-84    1.246777E-86    3.540074E-89
         9.669859E-92    2.545003E-94    6.463116E-97    1.585844E-99    3.764285-102    8.663506-105
  30     1.112285E-74    5.012869E-72    2.119251E-69    8.345098E-67    3.043050E-64    1.020575E-61    3.122442E-59    8.628872E-57    2.127616E-54    4.608282E-52
         8.590259E-50    1.340091E-47    1.679869E-45    1.586714E-43    1.004132E-41    3.195548E-40    2.030191E-41    6.485291E-43    1.387702E-44    2.236785E-46
         2.896175E-48    3.137125E-50    2.923468E-52    2.392252E-54    1.745949E-56    1.150554E-58    6.914225E-61    3.820265E-63    1.954051E-65    9.306889E-68
         4.148392E-70    1.738034E-72    6.870766E-75    2.571538E-77    9.139753E-80    3.093189E-82    9.992409E-85    3.088075E-87    9.148198E-90    2.602642E-92
         7.122950E-95    1.878234E-97    4.778703-100    1.174686-102    2.793343-105    6.440285-108
  31     7.510233E-78    3.376474E-75    1.423826E-72    5.591807E-70    2.033373E-67    6.799441E-65    2.073797E-62    5.711935E-60    1.403404E-57    3.028170E-55
         5.621845E-53    8.731833E-51    1.089430E-48    1.023801E-46    6.443531E-45    2.038455E-43    1.302304E-44    4.181684E-46    8.991071E-48    1.455784E-49
[...]
         7.895723E-03    1.272115E-02    1.996831E-02    3.048071E-02    4.517215E-02    6.491999E-02    9.044004E-02    0.122178        0.160239        0.204355    
         0.253894        0.307893        0.365111        0.424098        0.483267        0.540969        0.595566        0.645495        0.689334        0.725856    
         0.754071        0.773263        0.783013        0.783211        0.774052        0.756022        0.729869        0.696568        0.657279        0.613304    
         0.566071        0.517151        0.468385        0.422213        0.382450        0.355932    
  10     4.328351E-05    8.458214E-05    1.627800E-04    3.091798E-04    5.795259E-04    1.070983E-03    1.948848E-03    3.486555E-03    6.121843E-03    1.052867E-02
         1.769672E-02    2.899651E-02    4.618970E-02    7.132967E-02    0.106509        0.153477        0.213256        0.285944        0.370699        0.465857    
         0.569106        0.677684        0.788569        0.898650         1.00487         1.10435         1.19445         1.27288         1.33772         1.38751    
          1.42121         1.43828         1.43863         1.42268         1.39127         1.34564         1.28741         1.21846         1.14090         1.05702    
         0.969205        0.880060        0.792576        0.710739        0.640869        0.594519    
  11     7.753424E-05    1.529046E-04    2.984565E-04    5.766894E-04    1.101935E-03    2.079273E-03    3.868316E-03    7.082993E-03    1.273821E-02    2.244667E-02
         3.864618E-02    6.479012E-02    0.105358        0.165466        0.249881        0.361544        0.500377        0.663442        0.845758         1.04117    
          1.24311         1.44509         1.64112         1.82586         1.99474         2.14399         2.27061         2.37233         2.44761         2.49557    
          2.51597         2.50921         2.47629         2.41876         2.33871         2.23865         2.12151         1.99048         1.84899         1.70058    
          1.54889         1.39779         1.25172         1.11666         1.00233        0.926874    
  12     1.292892E-04    2.576288E-04    5.109899E-04    1.006826E-03    1.966842E-03    3.802568E-03    7.262932E-03    1.367862E-02    2.534479E-02    4.607311E-02
         8.188624E-02    0.141672        0.237302        0.382285        0.587820        0.856380         1.17733         1.53329         1.90569         2.27759    
          2.63503         2.96722         3.26634         3.52708         3.74609         3.92157         4.05281         4.13998         4.18391         4.18599    
          4.14810         4.07262         3.96238         3.82067         3.65122         3.45813         3.24583         3.01894         2.78226         2.54061    
          2.29891         2.06231         1.83675         1.63047         1.45722         1.34345    
  13     1.982734E-04    3.995260E-04    8.062254E-04    1.622555E-03    3.247690E-03    6.452276E-03    1.270169E-02    2.473000E-02    4.751532E-02    8.983258E-02
         0.166473        0.300803        0.526182        0.882354         1.39983         2.06721         2.80460         3.54079         4.22803         4.83877    
          5.36005         5.78852         6.12652         6.37942         6.55379         6.65636         6.69351         6.67105         6.59422         6.46782    
          6.29634         6.08422         5.83590         5.55604         5.24951         4.92148         4.57733         4.22263         3.86303         3.50423    
          3.15195         2.81229         2.49244         2.20273         1.96111         1.80313    
  14     2.752836E-04    5.607956E-04    1.151003E-03    2.365744E-03    4.853507E-03    9.920077E-03    2.017220E-02    4.075539E-02    8.167123E-02    0.161941    
         0.316590        0.606981         1.13198         2.02720         3.41326         5.21308         6.84191         8.14055         9.10297         9.77182    
          10.2012         10.4420         10.5369         10.5189         10.4133         10.2382         10.0066         9.72797         9.40887         9.05431    
          8.66831         8.25446         7.81633         7.35770         6.88272         6.39598         5.90247         5.40751         4.91665         4.43556    
          3.97012         3.52670         3.11321         2.74154         2.43332         2.23248    
  15     3.395972E-04    6.978830E-04    1.452108E-03    3.036913E-03    6.362435E-03    1.333397E-02    2.793873E-02    5.851347E-02    0.122450        0.255851    
         0.532899         1.10299         2.25518         4.50232         8.56361         14.5632         17.1715         18.0946         18.1539         17.7751    
          17.1866         16.5102         15.8082         15.1105         14.4292         13.7672         13.1224         12.4909         11.8680         11.2497    
          10.6324         10.0138         9.39278         8.76952         8.14532         7.52261         6.90472         6.29578         5.70041         5.12368    
          4.57102         4.04864         3.56462         3.13173         2.77405         2.54151    
  16     3.653951E-04    7.536585E-04    1.577387E-03    3.324468E-03    7.033473E-03    1.492578E-02    3.178495E-02    6.800793E-02    0.146473        0.318352    
         0.700524         1.56717         3.58307         8.42604         20.5486         51.8836         41.1243         33.9011         28.8824         25.2835    
          22.6116         20.5560         18.9181         17.5683         16.4200         15.4141         14.5091         13.6755         12.8919         12.1425    
          11.4162         10.7053         10.0047         9.31193         8.62626         7.94866         7.28144         6.62791         5.99216         5.37884    
          4.79310         4.24097         3.73052         3.27481         2.89875         2.65446    
  17     3.395972E-04    6.978830E-04    1.452108E-03    3.036913E-03    6.362435E-03    1.333397E-02    2.793873E-02    5.851347E-02    0.122450        0.255851    
         0.532899         1.10299         2.25518         4.50232         8.56361         14.5632         17.1715         18.0946         18.1539         17.7751    
          17.1866         16.5102         15.8082         15.1105         14.4292         13.7672         13.1224         12.4909         11.8680         11.2497    
          10.6324         10.0138         9.39278         8.76952         8.14532         7.52261         6.90472         6.29578         5.70041         5.12368    
          4.57102         4.04864         3.56462         3.13173         2.77405         2.54151    
  18     2.752836E-04    5.607956E-04    1.151003E-03    2.365744E-03    4.853507E-03    9.920077E-03    2.017220E-02    4.075539E-02    8.167123E-02    0.161941    
         0.316590        0.606981         1.13198         2.02720         3.41326         5.21308         6.84191         8.14055         9.10297         9.77182    
          10.2012         10.4420         10.5369         10.5189         10.4133         10.2382         10.0066         9.72797         9.40887         9.05431    
          8.66831         8.25446         7.81633         7.35770         6.88272         6.39598         5.90247         5.40751         4.91665         4.43556    
          3.97012         3.52670         3.11321         2.74154         2.43332         2.23248    
  19     1.982734E-04    3.995260E-04    8.062254E-04    1.622555E-03    3.247690E-03    6.452276E-03    1.270169E-02    2.473000E-02    4.751532E-02    8.983258E-02
         0.166473        0.300803        0.526182        0.882354         1.39983         2.06721         2.80460         3.54079         4.22803         4.83877    
          5.36005         5.78852         6.12652         6.37942         6.55379         6.65636         6.69351         6.67105         6.59422         6.46782    
          6.29634         6.08422         5.83590         5.55604         5.24951         4.92148         4.57733         4.22263         3.86303         3.50423    
          3.15195         2.81229         2.49244         2.20273         1.96111         1.80313    
  20     1.292892E-04    2.576288E-04    5.109899E-04    1.006826E-03    1.966842E-03    3.802568E-03    7.262932E-03    1.367862E-02    2.534479E-02    4.607311E-02
         8.188624E-02    0.141672        0.237302        0.382285        0.587820        0.856380         1.17733         1.53329         1.90569         2.27759    
          2.63503         2.96722         3.26634         3.52708         3.74609         3.92157         4.05281         4.13998         4.18391         4.18599    
          4.14810         4.07262         3.96238         3.82067         3.65122         3.45813         3.24583         3.01894         2.78226         2.54061    
          2.29891         2.06231         1.83675         1.63047         1.45722         1.34345    
  21     7.753424E-05    1.529046E-04    2.984565E-04    5.766894E-04    1.101935E-03    2.079273E-03    3.868316E-03    7.082993E-03    1.273821E-02    2.244667E-02
         3.864618E-02    6.479012E-02    0.105358        0.165466        0.249881        0.361544        0.500377        0.663442        0.845758         1.04117    
          1.24311         1.44509         1.64112         1.82586         1.99474         2.14399         2.27061         2.37233         2.44761         2.49557    
          2.51597         2.50921         2.47629         2.41876         2.33871         2.23865         2.12151         1.99048         1.84899         1.70058    
          1.54889         1.39779         1.25172         1.11666         1.00233        0.926874    
  22     4.328351E-05    8.458214E-05    1.627800E-04    3.091798E-04    5.795259E-04    1.070983E-03    1.948848E-03    3.486555E-03    6.121843E-03    1.052867E-02
         1.769672E-02    2.899651E-02    4.618970E-02    7.132967E-02    0.106509        0.153477        0.213256        0.285944        0.370699        0.465857    
         0.569106        0.677684        0.788569        0.898650         1.00487         1.10435         1.19445         1.27288         1.33772         1.38751    
          1.42121         1.43828         1.43863         1.42268         1.39127         1.34564         1.28741         1.21846         1.14090         1.05702    
         0.969205        0.880060        0.792576        0.710739        0.640869        0.594519    
  23     2.269616E-05    4.400643E-05    8.367319E-05    1.566162E-04    2.888159E-04    5.245092E-04    9.371566E-04    1.645356E-03    2.834500E-03    4.783792E-03
         7.895723E-03    1.272115E-02    1.996831E-02    3.048071E-02    4.517215E-02    6.491999E-02    9.044004E-02    0.122178        0.160239        0.204355    
         0.253894        0.307893        0.365111        0.424098        0.483267        0.540969        0.595566        0.645495        0.689334        0.725856    
         0.754071        0.773263        0.783013        0.783211        0.774052        0.756022        0.729869        0.696568        0.657279        0.613304    
         0.566071        0.517151        0.468385        0.422213        0.382450        0.355932    
  24     1.125168E-05    2.167386E-05    4.079388E-05    7.542441E-05    1.372126E-04    2.456198E-04    4.323573E-04    7.476788E-04    1.268782E-03    2.110156E-03
         3.434938E-03    5.465135E-03    8.487233E-03    1.284878E-02    1.894203E-02    2.717361E-02    3.792360E-02    5.150149E-02    6.810585E-02    8.779294E-02
         0.110457        0.135822        0.163450        0.192750        0.223012        0.253432        0.283150        0.311292        0.337012        0.359523    
         0.378141        0.392313        0.401640        0.405893        0.405022        0.399155        0.388585        0.373758        0.355245        0.333725    
         0.309969        0.284850        0.259407        0.235023        0.213841        0.199641    
  25     5.298565E-06    1.015120E-05    1.894570E-05    3.467372E-05    6.237406E-05    1.103406E-04    1.918895E-04    3.278278E-04    5.497121E-04    9.038482E-04
         1.455733E-03    2.294282E-03    3.534762E-03    5.319052E-03    7.811879E-03    1.119224E-02    1.564025E-02    2.132087E-02    2.836625E-02    3.685897E-02
         4.681775E-02    5.818719E-02    7.083229E-02    8.453846E-02    9.901689E-02    0.113915        0.128831        0.143334        0.156981        0.169343    
         0.180024        0.188680        0.195039        0.198912        0.200203        0.198909        0.195123        0.189025        0.180872        0.170988    
         0.159757        0.147626        0.135141        0.123032        0.112423        0.105274    
  26     2.378240E-06    4.535931E-06    8.406783E-06    1.525677E-05    2.719258E-05    4.764064E-05    8.203927E-05    1.387956E-04    2.305407E-04    3.756716E-04
         6.000886E-04    9.389244E-04    1.437925E-03    2.154034E-03    3.154709E-03    4.515572E-03    6.316288E-03    8.634817E-03    1.154051E-02    1.508667E-02
         1.930333E-02    2.419090E-02    2.971547E-02    3.580612E-02    4.235479E-02    4.921860E-02    5.622490E-02    6.317850E-02    6.987080E-02    7.609018E-02
         8.163303E-02    8.631452E-02    8.997850E-02    9.250577E-02    9.382018E-02    9.389220E-02    9.273973E-02    9.042646E-02    8.705819E-02    8.277836E-02
         7.776486E-02    7.223221E-02    6.644661E-02    6.076879E-02    5.575307E-02    5.235647E-02
  27     1.020049E-06    1.938317E-06    3.571789E-06    6.437248E-06    1.138630E-05    1.979094E-05    3.380928E-05    5.675037E-05    9.355120E-05    1.513645E-04
         2.402301E-04    3.737666E-04    5.697756E-04    8.506108E-04    1.243142E-03    1.778160E-03    2.489111E-03    3.410150E-03    4.573591E-03    6.006916E-03
         7.729609E-03    9.750076E-03    1.206299E-02    1.464734E-02    1.746542E-02    2.046296E-02    2.357046E-02    2.670570E-02    2.977740E-02    3.268959E-02
         3.534666E-02    3.765856E-02    3.954578E-02    4.094379E-02    4.180661E-02    4.210921E-02    4.184869E-02    4.104416E-02    3.973564E-02    3.798233E-02
         3.586147E-02    3.346936E-02    3.092828E-02    2.840587E-02    2.615983E-02    2.463162E-02
  28     4.190561E-07    7.938618E-07    1.455902E-06    2.608832E-06    4.585603E-06    7.918568E-06    1.343919E-05    2.241433E-05    3.672422E-05    5.908255E-05
         9.329091E-05    1.445080E-04    2.194992E-04    3.268181E-04    4.768601E-04    6.817283E-04    9.548601E-04    1.310388E-03    1.762235E-03    2.322990E-03
         3.002631E-03    3.807199E-03    4.737549E-03    5.788315E-03    6.947197E-03    8.194692E-03    9.504332E-03    1.084346E-02    1.217454E-02    1.345687E-02
         1.464870E-02    1.570950E-02    1.660224E-02    1.729552E-02    1.776539E-02    1.799669E-02    1.798385E-02    1.773116E-02    1.725249E-02    1.657076E-02
         1.571758E-02    1.473376E-02    1.367233E-02    1.260694E-02    1.165102E-02    1.099766E-02
  29     1.657282E-07    3.131494E-07    5.720000E-07    1.020023E-06    1.783491E-06    3.063056E-06    5.170339E-06    8.577794E-06    1.398380E-05    2.239347E-05
         3.521302E-05    5.435170E-05    8.232043E-05    1.223111E-04    1.782360E-04    2.547054E-04    3.569220E-04    4.904762E-04    6.610382E-04    8.739506E-04
         1.133744E-03    1.443608E-03    1.804861E-03    2.216476E-03    2.674708E-03    3.172881E-03    3.701373E-03    4.247821E-03    4.797548E-03    5.334207E-03
         5.840591E-03    6.299560E-03    6.695011E-03    7.012824E-03    7.241690E-03    7.373780E-03    7.405190E-03    7.336156E-03    7.171052E-03    6.918253E-03
         6.590040E-03    6.202863E-03    5.778623E-03    5.348136E-03    4.959008E-03    4.691883E-03
  30     6.497009E-08    1.224847E-07    2.229399E-07    3.958669E-07    6.889603E-07    1.177611E-06    1.978346E-06    3.267111E-06    5.303141E-06    8.458707E-06
         1.325416E-05    2.039646E-05    3.081762E-05    4.570785E-05    6.653629E-05    9.505112E-05    1.332510E-04    1.833205E-04    2.475257E-04    3.280690E-04
         4.269096E-04    5.455571E-04    6.848578E-04    8.447886E-04    1.024285E-03    1.221122E-03    1.431867E-03    1.651920E-03    1.875650E-03    2.096620E-03
         2.307890E-03    2.502388E-03    2.673304E-03    2.814489E-03    2.920829E-03    2.988551E-03    3.015446E-03    3.001007E-03    2.946467E-03    2.854779E-03
         2.730609E-03    2.580471E-03    2.413254E-03    2.241657E-03    2.085369E-03    1.977606E-03
  31     3.054160E-08    5.746365E-08    1.042668E-07    1.844496E-07    3.197058E-07    5.441710E-07    9.103927E-07    1.497439E-06    2.421492E-06    3.849100E-06
         6.012909E-06    9.229198E-06    1.391585E-05    2.060862E-05    2.997269E-05    4.280608E-05    6.003094E-05    8.266928E-05    1.118005E-04    1.484994E-04
         1.937565E-04    2.483836E-04    3.129106E-04    3.874840E-04    4.717748E-04    5.649083E-04    6.654263E-04    7.712883E-04    8.799190E-04    9.883012E-04
         1.093112E-03    1.190891E-03    1.278238E-03    1.352003E-03    1.409488E-03    1.448603E-03    1.468002E-03    1.467161E-03    1.446425E-03    1.407013E-03
         1.351028E-03    1.281538E-03    1.202843E-03    1.121170E-03    1.046228E-03    9.943296E-04

 CONCENTRATION WILL BE SAVED ON UNIT 1029 AT END OF TIME STEP  730, STRESS PERIOD    2


  MASS BUDGET FOR ENTIRE MODEL AT END OF TIME STEP  730, STRESS PERIOD   2
  ---------------------------------------------------------------------------------------------------

     CUMULATIVE MASS      M       RATES FOR THIS TIME STEP      M/T          PACKAGE NAME    
     ------------------                 ------------------------                     ----------------

           IN:                                      IN:
           ---                                      ---
     STORAGE-AQUEOUS =           0.0000       STORAGE-AQUEOUS =           0.0000     MST                              
                 WEL =      730000.0000                   WEL =        1000.0000     SSM_WEL-1                        
                 CHD =           0.0000                   CHD =           0.0000     SSM_CHD-1                        
                 CNC =           0.0000                   CNC =           0.0000     CNC-1                            

            TOTAL IN =      730000.0000              TOTAL IN =        1000.0000

          OUT:                                     OUT:
          ----                                     ----
     STORAGE-AQUEOUS =      703478.3242       STORAGE-AQUEOUS =         769.2358     MST                              
                 WEL =           0.0000                   WEL =           0.0000     SSM_WEL-1                        
                 CHD =       26521.6757                   CHD =         230.7642     SSM_CHD-1                        
                 CNC =       5.5859E-05                   CNC =       5.2603E-07     CNC-1                            

           TOTAL OUT =      730000.0000             TOTAL OUT =        1000.0000

            IN - OUT =       3.4587E-06              IN - OUT =       1.7019E-10

 PERCENT DISCREPANCY =           0.00     PERCENT DISCREPANCY =           0.00




         TIME SUMMARY AT END OF TIME STEP  730 IN STRESS PERIOD    2
                    SECONDS     MINUTES      HOURS       DAYS        YEARS
                    -----------------------------------------------------------
   TIME STEP LENGTH  86282.      1438.0      23.967     0.99863     2.73410E-03
 STRESS PERIOD TIME 6.29856E+07 1.04976E+06  17496.      729.00      1.9959    
         TOTAL TIME 6.30720E+07 1.05120E+06  17520.      730.00      1.9986    


end timestep

