                                   MODFLOW 6
                U.S. GEOLOGICAL SURVEY MODULAR HYDROLOGIC MODEL
                          GROUNDWATER FLOW MODEL (GWF)
                            VERSION 6.6.1 02/10/2025

   MODFLOW 6 compiled Feb 14 2025 13:40:10 with Intel(R) Fortran Intel(R) 64
   Compiler Classic for applications running on Intel(R) 64, Version 2021.7.0
                             Build 20220726_000000

This software has been approved for release by the U.S. Geological 
Survey (USGS). Although the software has been subjected to rigorous 
review, the USGS reserves the right to update the software as needed 
pursuant to further analysis and review. No warranty, expressed or 
implied, is made by the USGS or the U.S. Government as to the 
functionality of the software and related material nor shall the 
fact of release constitute any such warranty. Furthermore, the 
software is released on condition that neither the USGS nor the U.S. 
Government shall be held liable for any damages resulting from its 
authorized or unauthorized use. Also refer to the USGS Water 
Resources Software User Rights Notice for complete use, copyright, 
and distribution information.


As a work of the United States Government, this USGS product is 
in the public domain within the United States. You can copy, 
modify, distribute, and perform the work, even for commercial 
purposes, all without asking permission. Additionally, USGS 
waives copyright and related rights in the work worldwide 
through CC0 1.0 Universal Public Domain Dedication 
(https://creativecommons.org/publicdomain/zero/1.0/).

The following GNU Lesser General Public License (LGPL) libraries
are used in this USGS product:

    SPARSKIT version 2.0
      ilut, luson, and qsplit 
      (https://www-users.cse.umn.edu/~saad/software/SPARSKIT/)

    RCM - Reverse Cuthill McKee Ordering
      (https://people.math.sc.edu/Burkardt/f_src/rcm/rcm.html)

    BLAS - Basic Linear Algebra Subprograms Level 1
      (https://people.math.sc.edu/Burkardt/f_src/blas1_d/blas1_d.html)

    SPARSEKIT - Sparse Matrix Utility Package
      amux, dperm, dvperm, rperm, and cperm
      (https://people.sc.fsu.edu/~jburkardt/f77_src/sparsekit/sparsekit.html)

The following BSD-3 License libraries are used in this USGS product:

    Modern Fortran DAG Library
      Copyright (c) 2018, Jacob Williams
      All rights reserved.
      (https://github.com/jacobwilliams/daglib)

MODFLOW 6 compiler options: /O2 /heap-arrays:0 /fpe:0 /traceback /nologo /fpp
/c /module:win64\mod_mf6\ /object:win64\obj_mf6\

System command used to initiate simulation:
C:\Users\gross.DESKTOP-AIRQM2M\anaconda3\Scripts\mf6.exe

MODFLOW was compiled using uniform precision.

Real Variables
  KIND: 8
  TINY (smallest non-zero value):    2.225074-308
  HUGE (largest value):    1.797693+308
  PRECISION: 15
  SIZE IN BITS: 64

Integer Variables
  KIND: 4
  HUGE (largest value): 2147483647
  SIZE IN BITS: 32

Long Integer Variables
  KIND: 8
  HUGE (largest value): 9223372036854775807
  SIZE IN BITS: 64

Logical Variables
  KIND: 4
  SIZE IN BITS: 32
 
 NAMEFILE OPTIONS:
    FLOWS WILL BE SAVED TO BUDGET FILE SPECIFIED IN OUTPUT CONTROL
 END NAMEFILE OPTIONS:

 DIS -- STRUCTURED GRID DISCRETIZATION PACKAGE, VERSION 2 : 3/27/2014 - INPUT READ FROM MEMPATH: __INPUT__/EX01_MF6/DIS                            


 NPF -- NODE PROPERTY FLOW PACKAGE, VERSION 1, 3/30/2015 INPUT READ FROM MEMPATH: __INPUT__/EX01_MF6/NPF                            


 IC -- Initial Conditions Package, Version 8, 3/28/2015 input read from mempath: __INPUT__/EX01_MF6/IC                             


 Setting Discretization Options
    Model length unit [0=UND, 1=FEET, 2=METERS, 3=CENTIMETERS] set as 1
 End Setting Discretization Options

 Setting Discretization Dimensions
    NLAY = 3
    NROW = 15
    NCOL = 30
 End Setting Discretization Dimensions

 Setting Discretization Griddata
    DELR set from input file
    DELC set from input file
    TOP set from input file
    BOTM set from input file
 End Setting Discretization Griddata

 Setting NPF Options
 End Setting NPF Options

 Setting NPF Griddata
    ICELLTYPE set from input file
    K set from input file
    K33 set from input file
    K22 not provided.  Setting K22 = K.
 End Setting NPF Griddata


 WEL   -- WEL PACKAGE, VERSION 8, 2/22/2014 INPUT READ FROM MEMPATH: __INPUT__/EX01_MF6/WEL_0                          

 PROCESSING WEL BASE OPTIONS
 END OF WEL BASE OPTIONS

 PROCESSING WEL OPTIONS
 END OF WEL OPTIONS

 PROCESSING WEL BASE DIMENSIONS
    MAXBOUND =       1
 END OF WEL BASE DIMENSIONS

 RIV   -- RIV PACKAGE, VERSION 8, 2/22/2014 INPUT READ FROM MEMPATH: __INPUT__/EX01_MF6/RIV_0                          

 PROCESSING RIV BASE OPTIONS
 END OF RIV BASE OPTIONS

 PROCESSING RIV OPTIONS
 END OF RIV OPTIONS

 PROCESSING RIV BASE DIMENSIONS
    MAXBOUND =      15
 END OF RIV BASE DIMENSIONS

 RCH   -- RCH PACKAGE, VERSION 8, 2/22/2014 INPUT READ FROM MEMPATH: __INPUT__/EX01_MF6/RCHA_0                         

 PROCESSING RCH BASE OPTIONS
 END OF RCH BASE OPTIONS

 PROCESSING RCHA OPTIONS
    RECHARGE INPUT WILL BE READ AS ARRAY(S).
 END OF RCHA OPTIONS
    STRT set from input file
    BINARY GRID INFORMATION WILL BE WRITTEN TO:
      UNIT NUMBER: 1014
      FILE NAME: ex01_mf6.dis.grb

 OPENED ex01_mf6.dis.grb
 FILE TYPE:DATA(BINARY)   UNIT 1014   STATUS:REPLACE             
 FORMAT:UNFORMATTED            ACCESS:STREAM              
 ACTION:READWRITE           

      THE LAST TIME STEP WILL BE PRINTED
      THE LAST TIME STEP WILL BE PRINTED
 # File generated by Flopy version 3.9.1 on 05/18/2025 at 07:59:32.

 PROCESSING OC OPTIONS

    BUDGET INFORMATION WILL BE WRITTEN TO:
      UNIT NUMBER: 1015
      FILE NAME: ex01_mf6.cbc

 OPENED ex01_mf6.cbc
 FILE TYPE:DATA(BINARY)   UNIT 1015   STATUS:REPLACE             
 FORMAT:UNFORMATTED            ACCESS:STREAM              
 ACTION:READWRITE           

    HEAD INFORMATION WILL BE WRITTEN TO:
      UNIT NUMBER: 1016
      FILE NAME: ex01_mf6.hds

 OPENED ex01_mf6.hds
 FILE TYPE:DATA(BINARY)   UNIT 1016   STATUS:REPLACE             
 FORMAT:UNFORMATTED            ACCESS:STREAM              
 ACTION:READWRITE           

 END OF OC OPTIONS

start timestep kper="1" kstp="1" mode="normal"


 BEGIN READING OUTPUT CONTROL FOR STRESS PERIOD 1
      ALL TIME STEPS WILL BE SAVED
      ALL TIME STEPS WILL BE SAVED
      ALL TIME STEPS WILL BE PRINTED
      ALL TIME STEPS WILL BE PRINTED

 END READING OUTPUT CONTROL FOR STRESS PERIOD 1
 UBDSV1 SAVING     FLOW-JA-FACE ON UNIT   1015 AT TIME STEP      1, STRESS PERIOD      1
 UBDSV06 SAVING              WEL IN MODEL EX01_MF6         PACKAGE EX01_MF6        CONNECTED TO MODEL EX01_MF6         PACKAGE WEL_0            ON UNIT   1015 AT TIME STEP      1, STRESS PERIOD      1
 UBDSV06 SAVING              RIV IN MODEL EX01_MF6         PACKAGE EX01_MF6        CONNECTED TO MODEL EX01_MF6         PACKAGE RIV_0            ON UNIT   1015 AT TIME STEP      1, STRESS PERIOD      1
 UBDSV06 SAVING             RCHA IN MODEL EX01_MF6         PACKAGE EX01_MF6        CONNECTED TO MODEL EX01_MF6         PACKAGE RCHA_0           ON UNIT   1015 AT TIME STEP      1, STRESS PERIOD      1
1
  HEAD IN LAYER   1 AT END OF TIME STEP   1 IN STRESS PERIOD    1
  ---------------------------------------------------------------------------

            1           2           3           4           5           6           7           8           9          10
           11          12          13          14          15          16          17          18          19          20
           21          22          23          24          25          26          27          28          29          30
 ........................................................................................................................................................................................................................................................................................................................................................................
   1    345.4       345.4       345.3       345.2       345.0       344.8       344.6       344.3       344.0       343.6    
        343.2       342.7       342.2       341.6       341.0       340.3       339.5       338.7       337.8       336.8    
        335.8       334.6       333.4       332.0       330.5       328.9       327.0       325.0       322.8       320.3    
   2    345.4       345.3       345.2       345.1       345.0       344.8       344.5       344.2       343.9       343.5    
        343.1       342.6       342.1       341.5       340.9       340.2       339.5       338.7       337.8       336.8    
        335.8       334.6       333.4       332.0       330.5       328.8       327.0       325.0       322.8       320.3    
   3    345.2       345.2       345.1       345.0       344.8       344.6       344.4       344.1       343.8       343.4    
        343.0       342.5       342.0       341.4       340.8       340.1       339.4       338.6       337.7       336.7    
        335.7       334.5       333.3       331.9       330.4       328.8       327.0       325.0       322.8       320.3    
   4    345.0       345.0       344.9       344.8       344.6       344.4       344.2       343.9       343.6       343.2    
        342.8       342.3       341.8       341.3       340.7       340.0       339.2       338.4       337.6       336.6    
        335.6       334.5       333.2       331.9       330.4       328.8       327.0       325.0       322.8       320.3    
   5    344.8       344.7       344.7       344.5       344.4       344.2       343.9       343.6       343.3       343.0    
        342.6       342.1       341.6       341.1       340.5       339.8       339.1       338.3       337.4       336.5    
        335.5       334.3       333.1       331.8       330.3       328.7       326.9       324.9       322.7       320.3    
   6    344.5       344.4       344.4       344.2       344.1       343.9       343.6       343.3       343.0       342.7    
        342.3       341.8       341.3       340.8       340.2       339.6       338.9       338.1       337.2       336.3    
        335.3       334.2       333.0       331.7       330.2       328.6       326.9       324.9       322.7       320.3    
   7    344.1       344.1       344.0       343.9       343.7       343.5       343.3       343.0       342.7       342.3    
        341.9       341.5       341.0       340.5       339.9       339.3       338.6       337.9       337.0       336.1    
        335.1       334.1       332.9       331.6       330.1       328.5       326.8       324.9       322.7       320.3    
   8    343.8       343.7       343.6       343.5       343.3       343.1       342.9       342.6       342.3       341.9    
        341.5       341.1       340.7       340.2       339.6       339.0       338.4       337.6       336.8       335.9    
        335.0       333.9       332.7       331.4       330.0       328.5       326.7       324.8       322.7       320.3    
   9    343.4       343.4       343.3       343.1       343.0       342.7       342.5       342.2       341.8       341.5    
        341.1       340.7       340.3       339.8       339.3       338.7       338.1       337.4       336.6       335.8    
        334.8       333.8       332.6       331.3       329.9       328.4       326.7       324.8       322.6       320.3    
  10    343.1       343.1       343.0       342.8       342.6       342.4       342.1       341.8       341.4       341.1    
        340.7       340.3       339.9       339.5       339.0       338.5       337.9       337.2       336.4       335.6    
        334.7       333.6       332.5       331.2       329.8       328.3       326.6       324.7       322.6       320.3    
  11    342.9       342.8       342.7       342.6       342.4       342.1       341.8       341.5       341.1       340.7    
        340.4       340.1       339.7       339.3       338.8       338.3       337.7       337.0       336.3       335.5    
        334.5       333.5       332.4       331.1       329.8       328.3       326.6       324.7       322.6       320.3    
  12    342.7       342.6       342.5       342.4       342.2       342.0       341.7       341.4       341.0       340.7    
        340.3       340.0       339.6       339.2       338.7       338.2       337.6       336.9       336.2       335.4    
        334.4       333.4       332.3       331.1       329.7       328.2       326.5       324.7       322.6       320.3    
  13    342.6       342.5       342.5       342.3       342.1       341.9       341.6       341.4       341.0       340.7    
        340.4       340.0       339.6       339.1       338.7       338.1       337.5       336.9       336.1       335.3    
        334.4       333.4       332.3       331.0       329.7       328.2       326.5       324.6       322.6       320.3    
  14    342.5       342.5       342.4       342.3       342.1       341.9       341.7       341.4       341.1       340.7    
        340.4       340.0       339.6       339.1       338.7       338.1       337.5       336.8       336.1       335.3    
        334.4       333.3       332.2       331.0       329.6       328.1       326.5       324.6       322.6       320.3    
  15    342.5       342.5       342.4       342.3       342.1       341.9       341.7       341.4       341.1       340.8    
        340.4       340.0       339.6       339.2       338.7       338.1       337.5       336.8       336.1       335.2    
        334.3       333.3       332.2       331.0       329.6       328.1       326.5       324.6       322.6       320.3    
1
  HEAD IN LAYER   2 AT END OF TIME STEP   1 IN STRESS PERIOD    1
  ---------------------------------------------------------------------------

            1           2           3           4           5           6           7           8           9          10
           11          12          13          14          15          16          17          18          19          20
           21          22          23          24          25          26          27          28          29          30
 ........................................................................................................................................................................................................................................................................................................................................................................
   1    343.3       343.3       343.2       343.1       343.0       342.8       342.6       342.3       342.0       341.6    
        341.3       340.8       340.4       339.9       339.3       338.8       338.1       337.5       336.7       336.0    
        335.2       334.3       333.4       332.4       331.4       330.3       329.2       328.0       326.7       325.4    
   2    343.3       343.2       343.1       343.0       342.9       342.7       342.5       342.2       341.9       341.6    
        341.2       340.8       340.3       339.8       339.3       338.7       338.1       337.4       336.7       335.9    
        335.1       334.2       333.3       332.4       331.3       330.3       329.1       327.9       326.7       325.4    
   3    343.1       343.0       343.0       342.8       342.7       342.5       342.3       342.0       341.7       341.4    
        341.0       340.6       340.1       339.7       339.1       338.6       337.9       337.3       336.6       335.8    
        335.0       334.2       333.3       332.3       331.3       330.2       329.1       327.9       326.6       325.3    
   4    342.8       342.8       342.7       342.6       342.4       342.2       342.0       341.7       341.4       341.1    
        340.7       340.3       339.9       339.4       338.9       338.4       337.7       337.1       336.4       335.7    
        334.9       334.0       333.1       332.2       331.2       330.1       329.0       327.8       326.6       325.3    
   5    342.4       342.4       342.3       342.2       342.0       341.8       341.6       341.3       341.1       340.7    
        340.4       340.0       339.6       339.1       338.6       338.1       337.5       336.9       336.2       335.5    
        334.7       333.9       333.0       332.1       331.1       330.0       328.9       327.8       326.5       325.2    
   6    342.0       342.0       341.9       341.7       341.6       341.4       341.1       340.8       340.5       340.2    
        339.9       339.5       339.1       338.7       338.2       337.7       337.2       336.6       335.9       335.2    
        334.5       333.7       332.8       331.9       331.0       329.9       328.8       327.7       326.5       325.2    
   7    341.5       341.4       341.3       341.2       341.0       340.7       340.5       340.2       339.9       339.6    
        339.2       338.9       338.5       338.1       337.7       337.3       336.8       336.2       335.6       335.0    
        334.3       333.5       332.7       331.8       330.8       329.8       328.7       327.6       326.4       325.1    
   8    340.9       340.9       340.7       340.5       340.3       340.0       339.7       339.3       339.0       338.7    
        338.4       338.1       337.8       337.5       337.2       336.8       336.3       335.9       335.3       334.7    
        334.0       333.3       332.5       331.6       330.7       329.7       328.6       327.5       326.3       325.0    
   9    340.4       340.3       340.1       339.9       339.5       339.2       338.7       338.2       337.7       337.4    
        337.1       337.0       336.9       336.7       336.5       336.2       335.9       335.5       335.0       334.4    
        333.8       333.1       332.3       331.4       330.5       329.6       328.5       327.4       326.2       325.0    
  10    339.9       339.8       339.6       339.2       338.8       338.2       337.6       336.7       335.9       335.2    
        335.3       335.5       335.8       335.9       335.9       335.7       335.5       335.1       334.7       334.2    
        333.6       332.9       332.1       331.3       330.4       329.4       328.4       327.3       326.1       324.9    
  11    339.5       339.4       339.2       338.8       338.3       337.6       336.6       335.2       333.0       329.4    
        332.4       334.0       334.8       335.3       335.4       335.4       335.2       334.9       334.5       334.0    
        333.4       332.7       332.0       331.2       330.3       329.4       328.3       327.2       326.1       324.8    
  12    339.3       339.2       339.0       338.7       338.3       337.7       337.0       336.2       335.4       334.7    
        334.8       335.1       335.3       335.4       335.4       335.3       335.1       334.8       334.4       333.9    
        333.3       332.6       331.9       331.1       330.2       329.3       328.3       327.2       326.0       324.8    
  13    339.3       339.2       339.1       338.8       338.5       338.1       337.7       337.2       336.7       336.4    
        336.2       336.0       336.0       335.8       335.7       335.5       335.2       334.8       334.3       333.8    
        333.2       332.6       331.8       331.0       330.2       329.2       328.2       327.1       326.0       324.8    
  14    339.4       339.3       339.2       339.0       338.7       338.4       338.1       337.7       337.4       337.1    
        336.9       336.6       336.4       336.2       335.9       335.6       335.2       334.8       334.4       333.8    
        333.2       332.5       331.8       331.0       330.1       329.2       328.2       327.1       326.0       324.8    
  15    339.4       339.3       339.2       339.0       338.8       338.6       338.3       338.0       337.7       337.4    
        337.2       336.9       336.6       336.3       336.0       335.7       335.3       334.9       334.4       333.8    
        333.2       332.5       331.8       331.0       330.1       329.2       328.2       327.1       326.0       324.7    
1
  HEAD IN LAYER   3 AT END OF TIME STEP   1 IN STRESS PERIOD    1
  ---------------------------------------------------------------------------

            1           2           3           4           5           6           7           8           9          10
           11          12          13          14          15          16          17          18          19          20
           21          22          23          24          25          26          27          28          29          30
 ........................................................................................................................................................................................................................................................................................................................................................................
   1    341.3       341.2       341.2       341.1       340.9       340.7       340.5       340.3       340.0       339.7    
        339.4       339.0       338.6       338.2       337.7       337.2       336.7       336.2       335.7       335.1    
        334.5       333.9       333.4       332.8       332.2       331.7       331.3       330.9       330.6       330.4    
   2    341.2       341.1       341.0       340.9       340.8       340.6       340.4       340.2       339.9       339.6    
        339.3       338.9       338.5       338.1       337.6       337.2       336.7       336.1       335.6       335.0    
        334.5       333.9       333.3       332.7       332.2       331.7       331.2       330.9       330.6       330.4    
   3    340.9       340.9       340.8       340.7       340.6       340.4       340.2       339.9       339.7       339.4    
        339.0       338.7       338.3       337.9       337.5       337.0       336.5       336.0       335.5       334.9    
        334.3       333.8       333.2       332.7       332.1       331.6       331.2       330.8       330.5       330.4    
   4    340.6       340.5       340.5       340.4       340.2       340.0       339.8       339.6       339.3       339.0    
        338.7       338.3       338.0       337.6       337.2       336.7       336.3       335.8       335.3       334.7    
        334.2       333.6       333.1       332.5       332.0       331.5       331.1       330.7       330.4       330.3    
   5    340.1       340.1       340.0       339.9       339.7       339.5       339.3       339.1       338.8       338.5    
        338.2       337.9       337.5       337.2       336.8       336.4       335.9       335.5       335.0       334.5    
        334.0       333.4       332.9       332.4       331.9       331.4       331.0       330.6       330.3       330.2    
   6    339.5       339.5       339.4       339.3       339.1       338.9       338.6       338.4       338.1       337.8    
        337.5       337.2       336.9       336.6       336.2       335.9       335.5       335.1       334.6       334.2    
        333.7       333.2       332.7       332.2       331.7       331.2       330.8       330.5       330.2       330.0    
   7    338.9       338.8       338.7       338.5       338.3       338.0       337.7       337.4       337.1       336.8    
        336.5       336.3       336.1       335.8       335.6       335.3       335.0       334.6       334.2       333.8    
        333.4       332.9       332.5       332.0       331.5       331.1       330.7       330.3       330.1       329.9    
   8    338.1       338.0       337.8       337.6       337.3       336.9       336.5       336.1       335.7       335.4    
        335.2       335.0       334.9       334.8       334.7       334.6       334.3       334.1       333.8       333.4    
        333.1       332.6       332.2       331.8       331.3       330.9       330.5       330.2       329.9       329.8    
   9    337.3       337.2       337.0       336.6       336.2       335.6       334.9       334.3       333.7       333.3    
        333.2       333.3       333.5       333.6       333.7       333.7       333.7       333.5       333.3       333.1    
        332.7       332.4       332.0       331.5       331.1       330.7       330.3       330.0       329.8       329.6    
  10    336.6       336.5       336.2       335.7       335.0       334.1       333.0       331.7       330.3       329.3    
        329.9       330.8       331.6       332.3       332.7       333.0       333.1       333.1       332.9       332.7    
        332.4       332.1       331.7       331.4       331.0       330.6       330.2       329.9       329.7       329.5    
  11    336.2       336.0       335.7       335.1       334.3       333.1       331.4       328.9       324.9       318.2    
        324.5       328.0       330.0       331.3       332.0       332.5       332.7       332.7       332.7       332.5    
        332.2       331.9       331.6       331.2       330.8       330.4       330.1       329.8       329.6       329.4    
  12    336.0       335.9       335.5       335.1       334.4       333.5       332.4       331.1       329.7       328.7    
        329.3       330.2       331.1       331.7       332.2       332.5       332.6       332.6       332.5       332.4    
        332.1       331.8       331.5       331.1       330.7       330.4       330.0       329.7       329.5       329.3    
  13    336.1       335.9       335.7       335.3       334.9       334.3       333.7       333.0       332.4       332.0    
        332.0       332.1       332.3       332.6       332.7       332.8       332.8       332.7       332.6       332.4    
        332.1       331.8       331.4       331.0       330.7       330.3       329.9       329.6       329.4       329.3    
  14    336.2       336.1       335.9       335.6       335.3       334.9       334.5       334.1       333.8       333.5    
        333.3       333.2       333.2       333.2       333.2       333.1       333.0       332.8       332.6       332.4    
        332.1       331.7       331.4       331.0       330.6       330.2       329.9       329.6       329.4       329.2    
  15    336.3       336.2       336.0       335.8       335.6       335.3       335.0       334.6       334.3       334.1    
        333.9       333.7       333.6       333.5       333.4       333.3       333.1       332.9       332.7       332.4    
        332.1       331.7       331.4       331.0       330.6       330.2       329.9       329.6       329.4       329.2    

 HEAD WILL BE SAVED ON UNIT 1016 AT END OF TIME STEP    1, STRESS PERIOD    1


  VOLUME BUDGET FOR ENTIRE MODEL AT END OF TIME STEP    1, STRESS PERIOD   1
  ---------------------------------------------------------------------------------------------------

     CUMULATIVE VOLUME      L**3       RATES FOR THIS TIME STEP      L**3/T          PACKAGE NAME    
     ------------------                 ------------------------                     ----------------

           IN:                                      IN:
           ---                                      ---
                 WEL =           0.0000                   WEL =           0.0000     WEL_0                            
                 RIV =           0.0000                   RIV =           0.0000     RIV_0                            
                RCHA =      551250.0000                  RCHA =      551250.0000     RCHA_0                           

            TOTAL IN =      551250.0000              TOTAL IN =      551250.0000

          OUT:                                     OUT:
          ----                                     ----
                 WEL =      150000.0000                   WEL =      150000.0000     WEL_0                            
                 RIV =      401250.0000                   RIV =      401250.0000     RIV_0                            
                RCHA =           0.0000                  RCHA =           0.0000     RCHA_0                           

           TOTAL OUT =      551250.0000             TOTAL OUT =      551250.0000

            IN - OUT =       3.2037E-06              IN - OUT =       3.2037E-06

 PERCENT DISCREPANCY =           0.00     PERCENT DISCREPANCY =           0.00




         TIME SUMMARY AT END OF TIME STEP    1 IN STRESS PERIOD    1
                    SECONDS     MINUTES      HOURS       DAYS        YEARS
                    -----------------------------------------------------------
   TIME STEP LENGTH  86400.      1440.0      24.000      1.0000     2.73785E-03
 STRESS PERIOD TIME  86400.      1440.0      24.000      1.0000     2.73785E-03
         TOTAL TIME  86400.      1440.0      24.000      1.0000     2.73785E-03


end timestep

