                                  MODFLOW-2005     
      U.S. GEOLOGICAL SURVEY MODULAR FINITE-DIFFERENCE GROUND-WATER FLOW MODEL
                       VERSION 1.6.01 3/4/2009, with FMP2

 LIST FILE: tutorial02_B.list
                         UNIT    2

 OPENING tutorial02_B.dis
 FILE TYPE:DIS   UNIT   11   STATUS:OLD    
 FORMAT:FORMATTED              ACCESS:SEQUENTIAL          

 OPENING tutorial02_B.bas
 FILE TYPE:BAS6   UNIT   13   STATUS:OLD    
 FORMAT:FORMATTED              ACCESS:SEQUENTIAL          

 OPENING tutorial02_B.lpf
 FILE TYPE:LPF   UNIT   15   STATUS:OLD    
 FORMAT:FORMATTED              ACCESS:SEQUENTIAL          

 OPENING tutorial02_B.pcg
 FILE TYPE:PCG   UNIT   27   STATUS:OLD    
 FORMAT:FORMATTED              ACCESS:SEQUENTIAL          

 OPENING tutorial02_B.ghb
 FILE TYPE:GHB   UNIT   23   STATUS:OLD    
 FORMAT:FORMATTED              ACCESS:SEQUENTIAL          

 OPENING tutorial02_B.wel
 FILE TYPE:WEL   UNIT   20   STATUS:OLD    
 FORMAT:FORMATTED              ACCESS:SEQUENTIAL          

 OPENING tutorial02_B.oc
 FILE TYPE:OC   UNIT   14   STATUS:OLD    
 FORMAT:FORMATTED              ACCESS:SEQUENTIAL          

 OPENING tutorial02_B.cbc
 FILE TYPE:DATA(BINARY)   UNIT   53   STATUS:REPLACE
 FORMAT:BINARY                 ACCESS:SEQUENTIAL          

 OPENING tutorial02_B.hds
 FILE TYPE:DATA(BINARY)   UNIT   51   STATUS:REPLACE
 FORMAT:BINARY                 ACCESS:SEQUENTIAL          

 OPENING tutorial02_B.ddn
 FILE TYPE:DATA(BINARY)   UNIT   52   STATUS:REPLACE
 FORMAT:BINARY                 ACCESS:SEQUENTIAL          

 BAS -- BASIC PACKAGE, VERSION 7, 5/2/2005 INPUT READ FROM UNIT   13

 DISCRETIZATION INPUT DATA READ FROM UNIT   11
 # DIS package for MODFLOW-2005 generated by Flopy 3.9.1
    1 LAYERS        10 ROWS        20 COLUMNS
    3 STRESS PERIOD(S) IN SIMULATION
 MODEL TIME UNIT IS DAYS
 MODEL LENGTH UNIT IS METERS
  Confining bed flag for each layer:
   0

                     DELR =   50.0000    

                     DELC =   100.000    

 TOP ELEVATION OF LAYER 1 =   10.0000    

   MODEL LAYER BOTTOM EL. =  -50.0000     FOR LAYER   1


 STRESS PERIOD     LENGTH       TIME STEPS     MULTIPLIER FOR DELT    SS FLAG
 ----------------------------------------------------------------------------
        1         1.000000          1                    1.000         SS
        2         100.0000        100                    1.000         TR
        3         100.0000        100                    1.000         TR

 COMBINED STEADY-STATE AND TRANSIENT SIMULATION



 
 # BAS6 package for MODFLOW-2005 generated by Flopy 3.9.1                        
 THE FREE FORMAT OPTION HAS BEEN SELECTED



                     BOUNDARY ARRAY FOR LAYER   1
 READING ON UNIT   13 WITH FORMAT: (20I10)             

 AQUIFER HEAD WILL BE SET TO  -999.99     AT ALL NO-FLOW NODES (IBOUND=0).



                       INITIAL HEAD FOR LAYER   1
 READING ON UNIT   13 WITH FORMAT: (20E15.6)           
 # OC package for MODFLOW-2005 generated by Flopy 3.9.1

 OUTPUT CONTROL IS SPECIFIED ONLY AT TIME STEPS FOR WHICH OUTPUT IS DESIRED
 COMPACT CELL-BY-CELL BUDGET FILES WILL BE WRITTEN
 AUXILIARY DATA WILL BE SAVED IN CELL-BY-CELL BUDGET FILES
 HEAD PRINT FORMAT CODE IS   0    DRAWDOWN PRINT FORMAT CODE IS   0
 HEADS WILL BE SAVED ON UNIT   51    DRAWDOWNS WILL BE SAVED ON UNIT   52

 LPF -- LAYER-PROPERTY FLOW PACKAGE, VERSION 7, 5/2/2005
         INPUT READ FROM UNIT   15
 # LPF package for MODFLOW-2005 generated by Flopy 3.9.1
 CELL-BY-CELL FLOWS WILL BE SAVED ON UNIT   53
 HEAD AT CELLS THAT CONVERT TO DRY= -1.00000E+30
 No named parameters

   LAYER FLAGS:
 LAYER       LAYTYP        LAYAVG         CHANI        LAYVKA        LAYWET
 ---------------------------------------------------------------------------
    1             1             0     1.000E+00             0             0

   INTERPRETATION OF LAYER FLAGS:
                        INTERBLOCK     HORIZONTAL    DATA IN
         LAYER TYPE   TRANSMISSIVITY   ANISOTROPY   ARRAY VKA   WETTABILITY
 LAYER      (LAYTYP)      (LAYAVG)       (CHANI)      (LAYVKA)      (LAYWET)
 ---------------------------------------------------------------------------
    1   CONVERTIBLE      HARMONIC     1.000E+00    VERTICAL K  NON-WETTABLE

 WETTING CAPABILITY IS NOT ACTIVE IN ANY LAYER

    HYD. COND. ALONG ROWS =   1.00000     FOR LAYER   1

      VERTICAL HYD. COND. =   1.00000     FOR LAYER   1

         SPECIFIC STORAGE =  1.000000E-04 FOR LAYER   1

           SPECIFIC YIELD =  0.100000     FOR LAYER   1

 WEL -- WELL PACKAGE, VERSION 7, 5/2/2005 INPUT READ FROM UNIT   20
 # WEL package for MODFLOW-2005 generated by Flopy 3.9.1
 No named parameters
 MAXIMUM OF      1 ACTIVE WELLS AT ONE TIME


     0 Well parameters

 GHB -- GENERAL-HEAD BOUNDARY PACKAGE, VERSION 7, 5/2/2005
         INPUT READ FROM UNIT   23
 # GHB package for MODFLOW-2005 generated by Flopy 3.9.1
 No named parameters
 MAXIMUM OF     20 ACTIVE GHB CELLS AT ONE TIME


     0 GHB parameters

 PCG -- CONJUGATE-GRADIENT SOLUTION PACKAGE, VERSION 7, 5/2/2005
 # PCG package for MODFLOW-2005 generated by Flopy 3.9.1
 MAXIMUM OF     50 CALLS OF SOLUTION ROUTINE
 MAXIMUM OF     30 INTERNAL ITERATIONS PER CALL TO SOLUTION ROUTINE
 MATRIX PRECONDITIONING TYPE :    1



                                    SOLUTION BY THE CONJUGATE-GRADIENT METHOD
                                   -------------------------------------------
                    MAXIMUM NUMBER OF CALLS TO PCG ROUTINE =       50
                        MAXIMUM ITERATIONS PER CALL TO PCG =       30
                               MATRIX PRECONDITIONING TYPE =        1
        RELAXATION FACTOR (ONLY USED WITH PRECOND. TYPE 1) =    0.10000E+01
 PARAMETER OF POLYNOMIAL PRECOND. = 2 (2) OR IS CALCULATED :        0
                         HEAD CHANGE CRITERION FOR CLOSURE =    0.10000E-04
                     RESIDUAL CHANGE CRITERION FOR CLOSURE =    0.10000E-04
            PCG HEAD AND RESIDUAL CHANGE PRINTOUT INTERVAL =      999
     PRINTING FROM SOLVER IS LIMITED(1) OR SUPPRESSED (>1) =        3
                            STEADY-STATE DAMPING PARAMETER =    0.10000E+01
                               TRANSIENT DAMPING PARAMETER =    0.10000E+01
1
                            STRESS PERIOD NO.    1, LENGTH =   1.000000    
                            -----------------------------------------------

                              NUMBER OF TIME STEPS =     1

                               MULTIPLIER FOR DELT =     1.000

                            INITIAL TIME STEP SIZE =   1.000000    

 WELL NO.  LAYER   ROW   COL   STRESS RATE         
 --------------------------------------------------
      1      1      5     10       0.000    

      1 WELL 

 BOUND. NO. LAYER   ROW   COL     STAGE      CONDUCTANCE         
 ----------------------------------------------------------------
      1      1      1      1       10.00           6000.    
      2      1      1     20       0.000           5000.    
      3      1      2      1       10.00           6000.    
      4      1      2     20       0.000           5000.    
      5      1      3      1       10.00           6000.    
      6      1      3     20       0.000           5000.    
      7      1      4      1       10.00           6000.    
      8      1      4     20       0.000           5000.    
      9      1      5      1       10.00           6000.    
     10      1      5     20       0.000           5000.    
     11      1      6      1       10.00           6000.    
     12      1      6     20       0.000           5000.    
     13      1      7      1       10.00           6000.    
     14      1      7     20       0.000           5000.    
     15      1      8      1       10.00           6000.    
     16      1      8     20       0.000           5000.    
     17      1      9      1       10.00           6000.    
     18      1      9     20       0.000           5000.    
     19      1     10      1       10.00           6000.    
     20      1     10     20       0.000           5000.    

     20 GHB CELLS
 
 SOLVING FOR HEAD 

 OUTPUT CONTROL FOR STRESS PERIOD    1   TIME STEP   1
    SAVE HEAD FOR ALL LAYERS
    SAVE DRAWDOWN FOR ALL LAYERS
    SAVE BUDGET
    PRINT HEAD FOR ALL LAYERS
    PRINT BUDGET
 UBDSV2 SAVING "   CONSTANT HEAD" ON UNIT  53 AT TIME STEP  1, STRESS PERIOD   1
 UBDSV1 SAVING "FLOW RIGHT FACE " ON UNIT  53 AT TIME STEP  1, STRESS PERIOD   1
 UBDSV1 SAVING "FLOW FRONT FACE " ON UNIT  53 AT TIME STEP  1, STRESS PERIOD   1
1
              HEAD IN LAYER   1 AT END OF TIME STEP   1 IN STRESS PERIOD    1
  ---------------------------------------------------------------------------

            1           2           3           4           5           6           7           8           9          10
           11          12          13          14          15          16          17          18          19          20
 ........................................................................................................................
   1    9.990       9.507       9.019       8.528       8.032       7.532       7.028       6.519       6.006       5.488    
        4.965       4.437       3.903       3.365       2.821       2.271       1.715       1.154      0.5859      1.1554E-02
   2    9.990       9.507       9.019       8.528       8.032       7.532       7.028       6.519       6.006       5.488    
        4.965       4.437       3.903       3.365       2.821       2.271       1.715       1.154      0.5859      1.1554E-02
   3    9.990       9.507       9.019       8.528       8.032       7.532       7.028       6.519       6.006       5.488    
        4.965       4.437       3.903       3.365       2.821       2.271       1.715       1.154      0.5859      1.1554E-02
   4    9.990       9.507       9.019       8.528       8.032       7.532       7.028       6.519       6.006       5.488    
        4.965       4.437       3.903       3.365       2.821       2.271       1.715       1.154      0.5859      1.1554E-02
   5    9.990       9.507       9.019       8.528       8.032       7.532       7.028       6.519       6.006       5.488    
        4.965       4.437       3.903       3.365       2.821       2.271       1.715       1.154      0.5859      1.1554E-02
   6    9.990       9.507       9.019       8.528       8.032       7.532       7.028       6.519       6.006       5.488    
        4.965       4.437       3.903       3.365       2.821       2.271       1.715       1.154      0.5859      1.1554E-02
   7    9.990       9.507       9.019       8.528       8.032       7.532       7.028       6.519       6.006       5.488    
        4.965       4.437       3.903       3.365       2.821       2.271       1.715       1.154      0.5859      1.1554E-02
   8    9.990       9.507       9.019       8.528       8.032       7.532       7.028       6.519       6.006       5.488    
        4.965       4.437       3.903       3.365       2.821       2.271       1.715       1.154      0.5859      1.1554E-02
   9    9.990       9.507       9.019       8.528       8.032       7.532       7.028       6.519       6.006       5.488    
        4.965       4.437       3.903       3.365       2.821       2.271       1.715       1.154      0.5859      1.1554E-02
  10    9.990       9.507       9.019       8.528       8.032       7.532       7.028       6.519       6.006       5.488    
        4.965       4.437       3.903       3.365       2.821       2.271       1.715       1.154      0.5859      1.1554E-02

 HEAD WILL BE SAVED ON UNIT   51 AT END OF TIME STEP   1, STRESS PERIOD    1

 DRAWDOWN WILL BE SAVED ON UNIT   52 AT END OF TIME STEP   1, STRESS PERIOD    1
1
  VOLUMETRIC BUDGET FOR ENTIRE MODEL AT END OF TIME STEP  1 IN STRESS PERIOD   1
  ------------------------------------------------------------------------------

     CUMULATIVE VOLUMES      L**3       RATES FOR THIS TIME STEP      L**3/T
     ------------------                 ------------------------

           IN:                                      IN:
           ---                                      ---
             STORAGE =           0.0000               STORAGE =           0.0000
       CONSTANT HEAD =           0.0000         CONSTANT HEAD =           0.0000
               WELLS =           0.0000                 WELLS =           0.0000
     HEAD DEP BOUNDS =         577.7177       HEAD DEP BOUNDS =         577.7177

            TOTAL IN =         577.7177              TOTAL IN =         577.7177

          OUT:                                     OUT:
          ----                                     ----
             STORAGE =           0.0000               STORAGE =           0.0000
       CONSTANT HEAD =           0.0000         CONSTANT HEAD =           0.0000
               WELLS =           0.0000                 WELLS =           0.0000
     HEAD DEP BOUNDS =         577.7177       HEAD DEP BOUNDS =         577.7177

           TOTAL OUT =         577.7177             TOTAL OUT =         577.7177

            IN - OUT =           0.0000              IN - OUT =           0.0000

 PERCENT DISCREPANCY =           0.00     PERCENT DISCREPANCY =           0.00






          TIME SUMMARY AT END OF TIME STEP   1 IN STRESS PERIOD    1
                    SECONDS     MINUTES      HOURS       DAYS        YEARS
                    -----------------------------------------------------------
   TIME STEP LENGTH  86400.      1440.0      24.000      1.0000     2.73785E-03
 STRESS PERIOD TIME  86400.      1440.0      24.000      1.0000     2.73785E-03
         TOTAL TIME  86400.      1440.0      24.000      1.0000     2.73785E-03
1
1
                            STRESS PERIOD NO.    2, LENGTH =   100.0000    
                            -----------------------------------------------

                              NUMBER OF TIME STEPS =   100

                               MULTIPLIER FOR DELT =     1.000

                            INITIAL TIME STEP SIZE =   1.000000    

 WELL NO.  LAYER   ROW   COL   STRESS RATE         
 --------------------------------------------------
      1      1      5     10       0.000    

      1 WELL 

 BOUND. NO. LAYER   ROW   COL     STAGE      CONDUCTANCE         
 ----------------------------------------------------------------
      1      1      1      1       10.00           6000.    
      2      1      1     20       0.000           5000.    
      3      1      2      1       10.00           6000.    
      4      1      2     20       0.000           5000.    
      5      1      3      1       10.00           6000.    
      6      1      3     20       0.000           5000.    
      7      1      4      1       10.00           6000.    
      8      1      4     20       0.000           5000.    
      9      1      5      1       10.00           6000.    
     10      1      5     20       0.000           5000.    
     11      1      6      1       10.00           6000.    
     12      1      6     20       0.000           5000.    
     13      1      7      1       10.00           6000.    
     14      1      7     20       0.000           5000.    
     15      1      8      1       10.00           6000.    
     16      1      8     20       0.000           5000.    
     17      1      9      1       10.00           6000.    
     18      1      9     20       0.000           5000.    
     19      1     10      1       10.00           6000.    
     20      1     10     20       0.000           5000.    

     20 GHB CELLS
 
 SOLVING FOR HEAD 

 OUTPUT CONTROL FOR STRESS PERIOD    2   TIME STEP   1
    SAVE HEAD FOR ALL LAYERS
    SAVE DRAWDOWN FOR ALL LAYERS
    SAVE BUDGET
    PRINT HEAD FOR ALL LAYERS
    PRINT BUDGET
 UBDSV1 SAVING "         STORAGE" ON UNIT  53 AT TIME STEP  1, STRESS PERIOD   2
 UBDSV2 SAVING "   CONSTANT HEAD" ON UNIT  53 AT TIME STEP  1, STRESS PERIOD   2
 UBDSV1 SAVING "FLOW RIGHT FACE " ON UNIT  53 AT TIME STEP  1, STRESS PERIOD   2
 UBDSV1 SAVING "FLOW FRONT FACE " ON UNIT  53 AT TIME STEP  1, STRESS PERIOD   2
1
              HEAD IN LAYER   1 AT END OF TIME STEP   1 IN STRESS PERIOD    2
  ---------------------------------------------------------------------------

            1           2           3           4           5           6           7           8           9          10
           11          12          13          14          15          16          17          18          19          20
 ........................................................................................................................
   1    9.990       9.507       9.019       8.528       8.032       7.532       7.028       6.519       6.006       5.488    
        4.965       4.437       3.903       3.365       2.821       2.271       1.715       1.154      0.5859      1.1554E-02
   2    9.990       9.507       9.019       8.528       8.032       7.532       7.028       6.519       6.006       5.488    
        4.965       4.437       3.903       3.365       2.821       2.271       1.715       1.154      0.5859      1.1554E-02
   3    9.990       9.507       9.019       8.528       8.032       7.532       7.028       6.519       6.006       5.488    
        4.965       4.437       3.903       3.365       2.821       2.271       1.715       1.154      0.5859      1.1554E-02
   4    9.990       9.507       9.019       8.528       8.032       7.532       7.028       6.519       6.006       5.488    
        4.965       4.437       3.903       3.365       2.821       2.271       1.715       1.154      0.5859      1.1554E-02
   5    9.990       9.507       9.019       8.528       8.032       7.532       7.028       6.519       6.006       5.488    
        4.965       4.437       3.903       3.365       2.821       2.271       1.715       1.154      0.5859      1.1554E-02
   6    9.990       9.507       9.019       8.528       8.032       7.532       7.028       6.519       6.006       5.488    
        4.965       4.437       3.903       3.365       2.821       2.271       1.715       1.154      0.5859      1.1554E-02
   7    9.990       9.507       9.019       8.528       8.032       7.532       7.028       6.519       6.006       5.488    
        4.965       4.437       3.903       3.365       2.821       2.271       1.715       1.154      0.5859      1.1554E-02
   8    9.990       9.507       9.019       8.528       8.032       7.532       7.028       6.519       6.006       5.488    
        4.965       4.437       3.903       3.365       2.821       2.271       1.715       1.154      0.5859      1.1554E-02
   9    9.990       9.507       9.019       8.528       8.032       7.532       7.028       6.519       6.006       5.488    
        4.965       4.437       3.903       3.365       2.821       2.271       1.715       1.154      0.5859      1.1554E-02
  10    9.990       9.507       9.019       8.528       8.032       7.532       7.028       6.519       6.006       5.488    
        4.965       4.437       3.903       3.365       2.821       2.271       1.715       1.154      0.5859      1.1554E-02

 HEAD WILL BE SAVED ON UNIT   51 AT END OF TIME STEP   1, STRESS PERIOD    2

 DRAWDOWN WILL BE SAVED ON UNIT   52 AT END OF TIME STEP   1, STRESS PERIOD    2
1
  VOLUMETRIC BUDGET FOR ENTIRE MODEL AT END OF TIME STEP  1 IN STRESS PERIOD   2
  ------------------------------------------------------------------------------

     CUMULATIVE VOLUMES      L**3       RATES FOR THIS TIME STEP      L**3/T
     ------------------                 ------------------------

           IN:                                      IN:
           ---                                      ---
             STORAGE =       2.4076E-03               STORAGE =       2.4076E-03
       CONSTANT HEAD =           0.0000         CONSTANT HEAD =           0.0000
               WELLS =           0.0000                 WELLS =           0.0000
     HEAD DEP BOUNDS =        1155.4192       HEAD DEP BOUNDS =         577.7015

            TOTAL IN =        1155.4216              TOTAL IN =         577.7039

          OUT:                                     OUT:
          ----                                     ----
             STORAGE =       6.1035E-04               STORAGE =       6.1035E-04
       CONSTANT HEAD =           0.0000         CONSTANT HEAD =           0.0000
               WELLS =           0.0000                 WELLS =           0.0000
     HEAD DEP BOUNDS =        1155.4373       HEAD DEP BOUNDS =         577.7195

           TOTAL OUT =        1155.4379             TOTAL OUT =         577.7201

            IN - OUT =      -1.6235E-02              IN - OUT =      -1.6174E-02

 PERCENT DISCREPANCY =           0.00     PERCENT DISCREPANCY =           0.00






          TIME SUMMARY AT END OF TIME STEP   1 IN STRESS PERIOD    2
                    SECONDS     MINUTES      HOURS       DAYS        YEARS
                    -----------------------------------------------------------
   TIME STEP LENGTH  86400.      1440.0      24.000      1.0000     2.73785E-03
 STRESS PERIOD TIME  86400.      1440.0      24.000      1.0000     2.73785E-03
         TOTAL TIME 1.72800E+05  2880.0      48.000      2.0000     5.47570E-03
1
 
 SOLVING FOR HEAD 

 OUTPUT CONTROL FOR STRESS PERIOD    2   TIME STEP   2
    SAVE HEAD FOR ALL LAYERS
    SAVE DRAWDOWN FOR ALL LAYERS
    SAVE BUDGET
    PRINT HEAD FOR ALL LAYERS
    PRINT BUDGET
 UBDSV1 SAVING "         STORAGE" ON UNIT  53 AT TIME STEP  2, STRESS PERIOD   2
 UBDSV2 SAVING "   CONSTANT HEAD" ON UNIT  53 AT TIME STEP  2, STRESS PERIOD   2
 UBDSV1 SAVING "FLOW RIGHT FACE " ON UNIT  53 AT TIME STEP  2, STRESS PERIOD   2
 UBDSV1 SAVING "FLOW FRONT FACE " ON UNIT  53 AT TIME STEP  2, STRESS PERIOD   2
1
              HEAD IN LAYER   1 AT END OF TIME STEP   2 IN STRESS PERIOD    2
  ---------------------------------------------------------------------------

            1           2           3           4           5           6           7           8           9          10
           11          12          13          14          15          16          17          18          19          20
 ........................................................................................................................
   1    9.990       9.507       9.019       8.528       8.032       7.532       7.028       6.519       6.006       5.488    
        4.965       4.437       3.903       3.365       2.821       2.271       1.715       1.154      0.5859      1.1554E-02
   2    9.990       9.507       9.019       8.528       8.032       7.532       7.028       6.519       6.006       5.488    
        4.965       4.437       3.903       3.365       2.821       2.271       1.715       1.154      0.5859      1.1554E-02
   3    9.990       9.507       9.019       8.528       8.032       7.532       7.028       6.519       6.006       5.488    
        4.965       4.437       3.903       3.365       2.821       2.271       1.715       1.154      0.5859      1.1554E-02
   4    9.990       9.507       9.019       8.528       8.032       7.532       7.028       6.519       6.006       5.488    
        4.965       4.437       3.903       3.365       2.821       2.271       1.715       1.154      0.5859      1.1554E-02
   5    9.990       9.507       9.019       8.528       8.032       7.532       7.028       6.519       6.006       5.488    
        4.965       4.437       3.903       3.365       2.821       2.271       1.715       1.154      0.5859      1.1554E-02
   6    9.990       9.507       9.019       8.528       8.032       7.532       7.028       6.519       6.006       5.488    
        4.965       4.437       3.903       3.365       2.821       2.271       1.715       1.154      0.5859      1.1554E-02
   7    9.990       9.507       9.019       8.528       8.032       7.532       7.028       6.519       6.006       5.488    
        4.965       4.437       3.903       3.365       2.821       2.271       1.715       1.154      0.5859      1.1554E-02
   8    9.990       9.507       9.019       8.528       8.032       7.532       7.028       6.519       6.006       5.488    
        4.965       4.437       3.903       3.365       2.821       2.271       1.715       1.154      0.5859      1.1554E-02
   9    9.990       9.507       9.019       8.528       8.032       7.532       7.028       6.519       6.006       5.488    
        4.965       4.437       3.903       3.365       2.821       2.271       1.715       1.154      0.5859      1.1554E-02
  10    9.990       9.507       9.019       8.528       8.032       7.532       7.028       6.519       6.006       5.488    
        4.965       4.437       3.903       3.365       2.821       2.271       1.715       1.154      0.5859      1.1554E-02

 HEAD WILL BE SAVED ON UNIT   51 AT END OF TIME STEP   2, STRESS PERIOD    2

 DRAWDOWN WILL BE SAVED ON UNIT   52 AT END OF TIME STEP   2, STRESS PERIOD    2
1
  VOLUMETRIC BUDGET FOR ENTIRE MODEL AT END OF TIME STEP  2 IN STRESS PERIOD   2
  ------------------------------------------------------------------------------

     CUMULATIVE VOLUMES      L**3       RATES FOR THIS TIME STEP      L**3/T
     ------------------                 ------------------------

           IN:                                      IN:
           ---                                      ---
             STORAGE =       4.8108E-03               STORAGE =       2.4033E-03
       CONSTANT HEAD =           0.0000         CONSTANT HEAD =           0.0000
               WELLS =           0.0000                 WELLS =           0.0000
     HEAD DEP BOUNDS =        1733.1206       HEAD DEP BOUNDS =         577.7015

            TOTAL IN =        1733.1254              TOTAL IN =         577.7039

          OUT:                                     OUT:
          ----                                     ----
             STORAGE =       2.4414E-03               STORAGE =       1.8311E-03
       CONSTANT HEAD =           0.0000         CONSTANT HEAD =           0.0000
               WELLS =           0.0000                 WELLS =           0.0000
     HEAD DEP BOUNDS =        1733.1567       HEAD DEP BOUNDS =         577.7195

           TOTAL OUT =        1733.1592             TOTAL OUT =         577.7213

            IN - OUT =      -3.3813E-02              IN - OUT =      -1.7456E-02

 PERCENT DISCREPANCY =           0.00     PERCENT DISCREPANCY =           0.00






          TIME SUMMARY AT END OF TIME STEP   2 IN STRESS PERIOD    2
                    SECONDS     MINUTES      HOURS       DAYS        YEARS
                    -----------------------------------------------------------
   TIME STEP LENGTH  86400.      1440.0      24.000      1.0000     2.73785E-03
 STRESS PERIOD TIME 1.72800E+05  2880.0      48.000      2.0000     5.47570E-03
         TOTAL TIME 2.59200E+05  4320.0      72.000      3.0000     8.21355E-03
1
 
 SOLVING FOR HEAD 

 OUTPUT CONTROL FOR STRESS PERIOD    2   TIME STEP   3
    SAVE HEAD FOR ALL LAYERS
    SAVE DRAWDOWN FOR ALL LAYERS
    SAVE BUDGET
    PRINT HEAD FOR ALL LAYERS
    PRINT BUDGET
 UBDSV1 SAVING "         STORAGE" ON UNIT  53 AT TIME STEP  3, STRESS PERIOD   2
 UBDSV2 SAVING "   CONSTANT HEAD" ON UNIT  53 AT TIME STEP  3, STRESS PERIOD   2
 UBDSV1 SAVING "FLOW RIGHT FACE " ON UNIT  53 AT TIME STEP  3, STRESS PERIOD   2
 UBDSV1 SAVING "FLOW FRONT FACE " ON UNIT  53 AT TIME STEP  3, STRESS PERIOD   2
1
              HEAD IN LAYER   1 AT END OF TIME STEP   3 IN STRESS PERIOD    2
  ---------------------------------------------------------------------------

            1           2           3           4           5           6           7           8           9          10
           11          12          13          14          15          16          17          18          19          20
 ........................................................................................................................
   1    9.990       9.507       9.019       8.528       8.032       7.532       7.028       6.519       6.006       5.488    
        4.965       4.437       3.903       3.365       2.821       2.271       1.715       1.154      0.5859      1.1554E-02
   2    9.990       9.507       9.019       8.528       8.032       7.532       7.028       6.519       6.006       5.488    
        4.965       4.437       3.903       3.365       2.821       2.271       1.715       1.154      0.5859      1.1554E-02
   3    9.990       9.507       9.019       8.528       8.032       7.532       7.028       6.519       6.006       5.488    
        4.965       4.437       3.903       3.365       2.821       2.271       1.715       1.154      0.5859      1.1554E-02
   4    9.990       9.507       9.019       8.528       8.032       7.532       7.028       6.519       6.006       5.488    
        4.965       4.437       3.903       3.365       2.821       2.271       1.715       1.154      0.5859      1.1554E-02
   5    9.990       9.507       9.019       8.528       8.032       7.532       7.028       6.519       6.006       5.488    
        4.965       4.437       3.903       3.365       2.821       2.271       1.715       1.154      0.5859      1.1554E-02
   6    9.990       9.507       9.019       8.528       8.032       7.532       7.028       6.519       6.006       5.488    
        4.965       4.437       3.903       3.365       2.821       2.271       1.715       1.154      0.5859      1.1554E-02
   7    9.990       9.507       9.019       8.528       8.032       7.532       7.028       6.519       6.006       5.488    
        4.965       4.437       3.903       3.365       2.821       2.271       1.715       1.154      0.5859      1.1554E-02
   8    9.990       9.507       9.019       8.528       8.032       7.532       7.028       6.519       6.006       5.488    
        4.965       4.437       3.903       3.365       2.821       2.271       1.715       1.154      0.5859      1.1554E-02
   9    9.990       9.507       9.019       8.528       8.032       7.532       7.028       6.519       6.006       5.488    
        4.965       4.437       3.903       3.365       2.821       2.271       1.715       1.154      0.5859      1.1554E-02
  10    9.990       9.507       9.019       8.528       8.032       7.532       7.028       6.519       6.006       5.488    
        4.965       4.437       3.903       3.365       2.821       2.271       1.715       1.154      0.5859      1.1554E-02

 HEAD WILL BE SAVED ON UNIT   51 AT END OF TIME STEP   3, STRESS PERIOD    2

 DRAWDOWN WILL BE SAVED ON UNIT   52 AT END OF TIME STEP   3, STRESS PERIOD    2
1
  VOLUMETRIC BUDGET FOR ENTIRE MODEL AT END OF TIME STEP  3 IN STRESS PERIOD   2
  ------------------------------------------------------------------------------

     CUMULATIVE VOLUMES      L**3       RATES FOR THIS TIME STEP      L**3/T
     ------------------                 ------------------------

           IN:                                      IN:
           ---                                      ---
             STORAGE =       7.3361E-03               STORAGE =       2.5253E-03
       CONSTANT HEAD =           0.0000         CONSTANT HEAD =           0.0000
               WELLS =           0.0000                 WELLS =           0.0000
     HEAD DEP BOUNDS =        2310.8220       HEAD DEP BOUNDS =         577.7015

            TOTAL IN =        2310.8293              TOTAL IN =         577.7040

          OUT:                                     OUT:
          ----                                     ----
             STORAGE =       4.2725E-03               STORAGE =       1.8311E-03
       CONSTANT HEAD =           0.0000         CONSTANT HEAD =           0.0000
               WELLS =           0.0000                 WELLS =           0.0000
     HEAD DEP BOUNDS =        2310.8762       HEAD DEP BOUNDS =         577.7195

           TOTAL OUT =        2310.8804             TOTAL OUT =         577.7213

            IN - OUT =      -5.1025E-02              IN - OUT =      -1.7334E-02

 PERCENT DISCREPANCY =           0.00     PERCENT DISCREPANCY =           0.00






          TIME SUMMARY AT END OF TIME STEP   3 IN STRESS PERIOD    2
                    SECONDS     MINUTES      HOURS       DAYS        YEARS
                    -----------------------------------------------------------
   TIME STEP LENGTH  86400.      1440.0      24.000      1.0000     2.73785E-03
 STRESS PERIOD TIME 2.59200E+05  4320.0      72.000      3.0000     8.21355E-03
         TOTAL TIME 3.45600E+05  5760.0      96.000      4.0000     1.09514E-02
1
 
 SOLVING FOR HEAD 

 OUTPUT CONTROL FOR STRESS PERIOD    2   TIME STEP   4
    SAVE HEAD FOR ALL LAYERS
    SAVE DRAWDOWN FOR ALL LAYERS
    SAVE BUDGET
    PRINT HEAD FOR ALL LAYERS
    PRINT BUDGET
 UBDSV1 SAVING "         STORAGE" ON UNIT  53 AT TIME STEP  4, STRESS PERIOD   2
 UBDSV2 SAVING "   CONSTANT HEAD" ON UNIT  53 AT TIME STEP  4, STRESS PERIOD   2
 UBDSV1 SAVING "FLOW RIGHT FACE " ON UNIT  53 AT TIME STEP  4, STRESS PERIOD   2
 UBDSV1 SAVING "FLOW FRONT FACE " ON UNIT  53 AT TIME STEP  4, STRESS PERIOD   2
1
              HEAD IN LAYER   1 AT END OF TIME STEP   4 IN STRESS PERIOD    2
  ---------------------------------------------------------------------------

            1           2           3           4           5           6           7           8           9          10
           11          12          13          14          15          16          17          18          19          20
 ........................................................................................................................
   1    9.990       9.507       9.019       8.528       8.032       7.532       7.028       6.519       6.006       5.488    
        4.965       4.437       3.903       3.365       2.821       2.271       1.715       1.154      0.5859      1.1554E-02
   2    9.990       9.507       9.019       8.528       8.032       7.532       7.028       6.519       6.006       5.488    
        4.965       4.437       3.903       3.365       2.821       2.271       1.715       1.154      0.5859      1.1554E-02
   3    9.990       9.507       9.019       8.528       8.032       7.532       7.028       6.519       6.006       5.488    
        4.965       4.437       3.903       3.365       2.821       2.271       1.715       1.154      0.5859      1.1554E-02
   4    9.990       9.507       9.019       8.528       8.032       7.532       7.028       6.519       6.006       5.488    
        4.965       4.437       3.903       3.365       2.821       2.271       1.715       1.154      0.5859      1.1554E-02
   5    9.990       9.507       9.019       8.528       8.032       7.532       7.028       6.519       6.006       5.488    
        4.965       4.437       3.903       3.365       2.821       2.271       1.715       1.154      0.5859      1.1554E-02
   6    9.990       9.507       9.019       8.528       8.032       7.532       7.028       6.519       6.006       5.488    
        4.965       4.437       3.903       3.365       2.821       2.271       1.715       1.154      0.5859      1.1554E-02
   7    9.990       9.507       9.019       8.528       8.032       7.532       7.028       6.519       6.006       5.488    
        4.965       4.437       3.903       3.365       2.821       2.271       1.715       1.154      0.5859      1.1554E-02
   8    9.990       9.507       9.019       8.528       8.032       7.532       7.028       6.519       6.006       5.488    
        4.965       4.437       3.903       3.365       2.821       2.271       1.715       1.154      0.5859      1.1554E-02
   9    9.990       9.507       9.019       8.528       8.032       7.532       7.028       6.519       6.006       5.488    
        4.965       4.437       3.903       3.365       2.821       2.271       1.715       1.154      0.5859      1.1554E-02
  10    9.990       9.507       9.019       8.528       8.032       7.532       7.028       6.519       6.006       5.488    
        4.965       4.437       3.903       3.365       2.821       2.271       1.715       1.154      0.5859      1.1554E-02

 HEAD WILL BE SAVED ON UNIT   51 AT END OF TIME STEP   4, STRESS PERIOD    2

 DRAWDOWN WILL BE SAVED ON UNIT   52 AT END OF TIME STEP   4, STRESS PERIOD    2
1
  VOLUMETRIC BUDGET FOR ENTIRE MODEL AT END OF TIME STEP  4 IN STRESS PERIOD   2
  ------------------------------------------------------------------------------

     CUMULATIVE VOLUMES      L**3       RATES FOR THIS TIME STEP      L**3/T
     ------------------                 ------------------------

           IN:                                      IN:
           ---                                      ---
             STORAGE =       9.8615E-03               STORAGE =       2.5253E-03
       CONSTANT HEAD =           0.0000         CONSTANT HEAD =           0.0000
               WELLS =           0.0000                 WELLS =           0.0000
     HEAD DEP BOUNDS =        2888.5234       HEAD DEP BOUNDS =         577.7015

            TOTAL IN =        2888.5332              TOTAL IN =         577.7040

          OUT:                                     OUT:
          ----                                     ----
             STORAGE =       6.1035E-03               STORAGE =       1.8311E-03
       CONSTANT HEAD =           0.0000         CONSTANT HEAD =           0.0000
               WELLS =           0.0000                 WELLS =           0.0000
     HEAD DEP BOUNDS =        2888.5957       HEAD DEP BOUNDS =         577.7195

           TOTAL OUT =        2888.6018             TOTAL OUT =         577.7213

            IN - OUT =      -6.8604E-02              IN - OUT =      -1.7334E-02

 PERCENT DISCREPANCY =           0.00     PERCENT DISCREPANCY =           0.00






          TIME SUMMARY AT END OF TIME STEP   4 IN STRESS PERIOD    2
                    SECONDS     MINUTES      HOURS       DAYS        YEARS
                    -----------------------------------------------------------
   TIME STEP LENGTH  86400.      1440.0      24.000      1.0000     2.73785E-03
 STRESS PERIOD TIME 3.45600E+05  5760.0      96.000      4.0000     1.09514E-02
         TOTAL TIME 4.32000E+05  7200.0      120.00      5.0000     1.36893E-02
1
 
 SOLVING FOR HEAD 

 OUTPUT CONTROL FOR STRESS PERIOD    2   TIME STEP   5
    SAVE HEAD FOR ALL LAYERS
    SAVE DRAWDOWN FOR ALL LAYERS
    SAVE BUDGET
    PRINT HEAD FOR ALL LAYERS
    PRINT BUDGET
 UBDSV1 SAVING "         STORAGE" ON UNIT  53 AT TIME STEP  5, STRESS PERIOD   2
 UBDSV2 SAVING "   CONSTANT HEAD" ON UNIT  53 AT TIME STEP  5, STRESS PERIOD   2
 UBDSV1 SAVING "FLOW RIGHT FACE " ON UNIT  53 AT TIME STEP  5, STRESS PERIOD   2
 UBDSV1 SAVING "FLOW FRONT FACE " ON UNIT  53 AT TIME STEP  5, STRESS PERIOD   2
1
              HEAD IN LAYER   1 AT END OF TIME STEP   5 IN STRESS PERIOD    2
  ---------------------------------------------------------------------------

            1           2           3           4           5           6           7           8           9          10
           11          12          13          14          15          16          17          18          19          20
 ........................................................................................................................
   1    9.990       9.507       9.019       8.528       8.032       7.532       7.028       6.519       6.006       5.488    
        4.965       4.437       3.903       3.365       2.821       2.271       1.715       1.154      0.5859      1.1554E-02
   2    9.990       9.507       9.019       8.528       8.032       7.532       7.028       6.519       6.006       5.488    
        4.965       4.437       3.903       3.365       2.821       2.271       1.715       1.154      0.5859      1.1554E-02
   3    9.990       9.507       9.019       8.528       8.032       7.532       7.028       6.519       6.006       5.488    
        4.965       4.437       3.903       3.365       2.821       2.271       1.715       1.154      0.5859      1.1554E-02
   4    9.990       9.507       9.019       8.528       8.032       7.532       7.028       6.519       6.006       5.488    
        4.965       4.437       3.903       3.365       2.821       2.271       1.715       1.154      0.5859      1.1554E-02
   5    9.990       9.507       9.019       8.528       8.032       7.532       7.028       6.519       6.006       5.488    
        4.965       4.437       3.903       3.365       2.821       2.271       1.715       1.154      0.5859      1.1554E-02
   6    9.990       9.507       9.019       8.528       8.032       7.532       7.028       6.519       6.006       5.488    
        4.965       4.437       3.903       3.365       2.821       2.271       1.715       1.154      0.5859      1.1554E-02
   7    9.990       9.507       9.019       8.528       8.032       7.532       7.028       6.519       6.006       5.488    
        4.965       4.437       3.903       3.365       2.821       2.271       1.715       1.154      0.5859      1.1554E-02
   8    9.990       9.507       9.019       8.528       8.032       7.532       7.028       6.519       6.006       5.488    
        4.965       4.437       3.903       3.365       2.821       2.271       1.715       1.154      0.5859      1.1554E-02
   9    9.990       9.507       9.019       8.528       8.032       7.532       7.028       6.519       6.006       5.488    
        4.965       4.437       3.903       3.365       2.821       2.271       1.715       1.154      0.5859      1.1554E-02
  10    9.990       9.507       9.019       8.528       8.032       7.532       7.028       6.519       6.006       5.488    
        4.965       4.437       3.903       3.365       2.821       2.271       1.715       1.154      0.5859      1.1554E-02

 HEAD WILL BE SAVED ON UNIT   51 AT END OF TIME STEP   5, STRESS PERIOD    2

 DRAWDOWN WILL BE SAVED ON UNIT   52 AT END OF TIME STEP   5, STRESS PERIOD    2
1
  VOLUMETRIC BUDGET FOR ENTIRE MODEL AT END OF TIME STEP  5 IN STRESS PERIOD   2
  ------------------------------------------------------------------------------

     CUMULATIVE VOLUMES      L**3       RATES FOR THIS TIME STEP      L**3/T
     ------------------                 ------------------------

           IN:                                      IN:
           ---                                      ---
             STORAGE =       1.2387E-02               STORAGE =       2.5253E-03
       CONSTANT HEAD =           0.0000         CONSTANT HEAD =           0.0000
               WELLS =           0.0000                 WELLS =           0.0000
     HEAD DEP BOUNDS =        3466.2249       HEAD DEP BOUNDS =         577.7015

            TOTAL IN =        3466.2373              TOTAL IN =         577.7040

          OUT:                                     OUT:
          ----                                     ----
             STORAGE =       7.9346E-03               STORAGE =       1.8311E-03
       CONSTANT HEAD =           0.0000         CONSTANT HEAD =           0.0000
               WELLS =           0.0000                 WELLS =           0.0000
     HEAD DEP BOUNDS =        3466.3152       HEAD DEP BOUNDS =         577.7195

           TOTAL OUT =        3466.3232             TOTAL OUT =         577.7213

            IN - OUT =      -8.5938E-02              IN - OUT =      -1.7334E-02

 PERCENT DISCREPANCY =           0.00     PERCENT DISCREPANCY =           0.00






          TIME SUMMARY AT END OF TIME STEP   5 IN STRESS PERIOD    2
                    SECONDS     MINUTES      HOURS       DAYS        YEARS
                    -----------------------------------------------------------
   TIME STEP LENGTH  86400.      1440.0      24.000      1.0000     2.73785E-03
 STRESS PERIOD TIME 4.32000E+05  7200.0      120.00      5.0000     1.36893E-02
         TOTAL TIME 5.18400E+05  8640.0      144.00      6.0000     1.64271E-02
1
 
 SOLVING FOR HEAD 

 OUTPUT CONTROL FOR STRESS PERIOD    2   TIME STEP   6
    SAVE HEAD FOR ALL LAYERS
    SAVE DRAWDOWN FOR ALL LAYERS
    SAVE BUDGET
    PRINT HEAD FOR ALL LAYERS
    PRINT BUDGET
 UBDSV1 SAVING "         STORAGE" ON UNIT  53 AT TIME STEP  6, STRESS PERIOD   2
 UBDSV2 SAVING "   CONSTANT HEAD" ON UNIT  53 AT TIME STEP  6, STRESS PERIOD   2
 UBDSV1 SAVING "FLOW RIGHT FACE " ON UNIT  53 AT TIME STEP  6, STRESS PERIOD   2
 UBDSV1 SAVING "FLOW FRONT FACE " ON UNIT  53 AT TIME STEP  6, STRESS PERIOD   2
1
              HEAD IN LAYER   1 AT END OF TIME STEP   6 IN STRESS PERIOD    2
  ---------------------------------------------------------------------------

            1           2           3           4           5           6           7           8           9          10
           11          12          13          14          15          16          17          18          19          20
 ........................................................................................................................
   1    9.990       9.507       9.019       8.528       8.032       7.532       7.028       6.519       6.006       5.488    
        4.965       4.437       3.903       3.365       2.821       2.271       1.715       1.154      0.5859      1.1554E-02
   2    9.990       9.507       9.019       8.528       8.032       7.532       7.028       6.519       6.006       5.488    
        4.965       4.437       3.903       3.365       2.821       2.271       1.715       1.154      0.5859      1.1554E-02
   3    9.990       9.507       9.019       8.528       8.032       7.532       7.028       6.519       6.006       5.488    
        4.965       4.437       3.903       3.365       2.821       2.271       1.715       1.154      0.5859      1.1554E-02
   4    9.990       9.507       9.019       8.528       8.032       7.532       7.028       6.519       6.006       5.488    
        4.965       4.437       3.903       3.365       2.821       2.271       1.715       1.154      0.5859      1.1554E-02
   5    9.990       9.507       9.019       8.528       8.032       7.532       7.028       6.519       6.006       5.488    
        4.965       4.437       3.903       3.365       2.821       2.271       1.715       1.154      0.5859      1.1554E-02
   6    9.990       9.507       9.019       8.528       8.032       7.532       7.028       6.519       6.006       5.488    
        4.965       4.437       3.903       3.365       2.821       2.271       1.715       1.154      0.5859      1.1554E-02
   7    9.990       9.507       9.019       8.528       8.032       7.532       7.028       6.519       6.006       5.488    
        4.965       4.437       3.903       3.365       2.821       2.271       1.715       1.154      0.5859      1.1554E-02
   8    9.990       9.507       9.019       8.528       8.032       7.532       7.028       6.519       6.006       5.488    
        4.965       4.437       3.903       3.365       2.821       2.271       1.715       1.154      0.5859      1.1554E-02
   9    9.990       9.507       9.019       8.528       8.032       7.532       7.028       6.519       6.006       5.488    
        4.965       4.437       3.903       3.365       2.821       2.271       1.715       1.154      0.5859      1.1554E-02
  10    9.990       9.507       9.019       8.528       8.032       7.532       7.028       6.519       6.006       5.488    
        4.965       4.437       3.903       3.365       2.821       2.271       1.715       1.154      0.5859      1.1554E-02

 HEAD WILL BE SAVED ON UNIT   51 AT END OF TIME STEP   6, STRESS PERIOD    2

 DRAWDOWN WILL BE SAVED ON UNIT   52 AT END OF TIME STEP   6, STRESS PERIOD    2
1
  VOLUMETRIC BUDGET FOR ENTIRE MODEL AT END OF TIME STEP  6 IN STRESS PERIOD   2
  ------------------------------------------------------------------------------

     CUMULATIVE VOLUMES      L**3       RATES FOR THIS TIME STEP      L**3/T
     ------------------                 ------------------------

           IN:                                      IN:
           ---                                      ---
             STORAGE =       1.4790E-02               STORAGE =       2.4033E-03
       CONSTANT HEAD =           0.0000         CONSTANT HEAD =           0.0000
               WELLS =           0.0000                 WELLS =           0.0000
     HEAD DEP BOUNDS =        4043.9263       HEAD DEP BOUNDS =         577.7015

            TOTAL IN =        4043.9412              TOTAL IN =         577.7039

          OUT:                                     OUT:
          ----                                     ----
             STORAGE =       9.7656E-03               STORAGE =       1.8311E-03
       CONSTANT HEAD =           0.0000         CONSTANT HEAD =           0.0000
               WELLS =           0.0000                 WELLS =           0.0000
     HEAD DEP BOUNDS =        4044.0347       HEAD DEP BOUNDS =         577.7195

           TOTAL OUT =        4044.0444             TOTAL OUT =         577.7213

            IN - OUT =          -0.1033              IN - OUT =      -1.7456E-02

 PERCENT DISCREPANCY =           0.00     PERCENT DISCREPANCY =           0.00






          TIME SUMMARY AT END OF TIME STEP   6 IN STRESS PERIOD    2
                    SECONDS     MINUTES      HOURS       DAYS        YEARS
                    -----------------------------------------------------------
   TIME STEP LENGTH  86400.      1440.0      24.000      1.0000     2.73785E-03
 STRESS PERIOD TIME 5.18400E+05  8640.0      144.00      6.0000     1.64271E-02
         TOTAL TIME 6.04800E+05  10080.      168.00      7.0000     1.91650E-02
1
 
 SOLVING FOR HEAD 

 OUTPUT CONTROL FOR STRESS PERIOD    2   TIME STEP   7
    SAVE HEAD FOR ALL LAYERS
    SAVE DRAWDOWN FOR ALL LAYERS
    SAVE BUDGET
    PRINT HEAD FOR ALL LAYERS
    PRINT BUDGET
 UBDSV1 SAVING "         STORAGE" ON UNIT  53 AT TIME STEP  7, STRESS PERIOD   2
 UBDSV2 SAVING "   CONSTANT HEAD" ON UNIT  53 AT TIME STEP  7, STRESS PERIOD   2
 UBDSV1 SAVING "FLOW RIGHT FACE " ON UNIT  53 AT TIME STEP  7, STRESS PERIOD   2
 UBDSV1 SAVING "FLOW FRONT FACE " ON UNIT  53 AT TIME STEP  7, STRESS PERIOD   2
1
              HEAD IN LAYER   1 AT END OF TIME STEP   7 IN STRESS PERIOD    2
  ---------------------------------------------------------------------------

            1           2           3           4           5           6           7           8           9          10
           11          12          13          14          15          16          17          18          19          20
 ........................................................................................................................
   1    9.990       9.507       9.019       8.528       8.032       7.532       7.028       6.519       6.006       5.488    
        4.965       4.437       3.903       3.365       2.821       2.271       1.715       1.154      0.5859      1.1554E-02
   2    9.990       9.507       9.019       8.528       8.032       7.532       7.028       6.519       6.006       5.488    
        4.965       4.437       3.903       3.365       2.821       2.271       1.715       1.154      0.5859      1.1554E-02
   3    9.990       9.507       9.019       8.528       8.032       7.532       7.028       6.519       6.006       5.488    
        4.965       4.437       3.903       3.365       2.821       2.271       1.715       1.154      0.5859      1.1554E-02
   4    9.990       9.507       9.019       8.528       8.032       7.532       7.028       6.519       6.006       5.488    
        4.965       4.437       3.903       3.365       2.821       2.271       1.715       1.154      0.5859      1.1554E-02
   5    9.990       9.507       9.019       8.528       8.032       7.532       7.028       6.519       6.006       5.488    
        4.965       4.437       3.903       3.365       2.821       2.271       1.715       1.154      0.5859      1.1554E-02
   6    9.990       9.507       9.019       8.528       8.032       7.532       7.028       6.519       6.006       5.488    
        4.965       4.437       3.903       3.365       2.821       2.271       1.715       1.154      0.5859      1.1554E-02
   7    9.990       9.507       9.019       8.528       8.032       7.532       7.028       6.519       6.006       5.488    
        4.965       4.437       3.903       3.365       2.821       2.271       1.715       1.154      0.5859      1.1554E-02
   8    9.990       9.507       9.019       8.528       8.032       7.532       7.028       6.519       6.006       5.488    
        4.965       4.437       3.903       3.365       2.821       2.271       1.715       1.154      0.5859      1.1554E-02
   9    9.990       9.507       9.019       8.528       8.032       7.532       7.028       6.519       6.006       5.488    
        4.965       4.437       3.903       3.365       2.821       2.271       1.715       1.154      0.5859      1.1554E-02
  10    9.990       9.507       9.019       8.528       8.032       7.532       7.028       6.519       6.006       5.488    
        4.965       4.437       3.903       3.365       2.821       2.271       1.715       1.154      0.5859      1.1554E-02

 HEAD WILL BE SAVED ON UNIT   51 AT END OF TIME STEP   7, STRESS PERIOD    2

 DRAWDOWN WILL BE SAVED ON UNIT   52 AT END OF TIME STEP   7, STRESS PERIOD    2
1
  VOLUMETRIC BUDGET FOR ENTIRE MODEL AT END OF TIME STEP  7 IN STRESS PERIOD   2
  ------------------------------------------------------------------------------

     CUMULATIVE VOLUMES      L**3       RATES FOR THIS TIME STEP      L**3/T
     ------------------                 ------------------------

           IN:                                      IN:
           ---                                      ---
             STORAGE =       1.7193E-02               STORAGE =       2.4033E-03
       CONSTANT HEAD =           0.0000         CONSTANT HEAD =           0.0000
               WELLS =           0.0000                 WELLS =           0.0000
     HEAD DEP BOUNDS =        4621.6279       HEAD DEP BOUNDS =         577.7015

            TOTAL IN =        4621.6450              TOTAL IN =         577.7039

          OUT:                                     OUT:
          ----                                     ----
             STORAGE =       1.1597E-02               STORAGE =       1.8311E-03
       CONSTANT HEAD =           0.0000         CONSTANT HEAD =           0.0000
               WELLS =           0.0000                 WELLS =           0.0000
     HEAD DEP BOUNDS =        4621.7539       HEAD DEP BOUNDS =         577.7195

           TOTAL OUT =        4621.7656             TOTAL OUT =         577.7213

            IN - OUT =          -0.1206              IN - OUT =      -1.7456E-02

 PERCENT DISCREPANCY =           0.00     PERCENT DISCREPANCY =           0.00






          TIME SUMMARY AT END OF TIME STEP   7 IN STRESS PERIOD    2
                    SECONDS     MINUTES      HOURS       DAYS        YEARS
                    -----------------------------------------------------------
   TIME STEP LENGTH  86400.      1440.0      24.000      1.0000     2.73785E-03
 STRESS PERIOD TIME 6.04800E+05  10080.      168.00      7.0000     1.91650E-02
         TOTAL TIME 6.91200E+05  11520.      192.00      8.0000     2.19028E-02
1
 
 SOLVING FOR HEAD 

 OUTPUT CONTROL FOR STRESS PERIOD    2   TIME STEP   8
    SAVE HEAD FOR ALL LAYERS
    SAVE DRAWDOWN FOR ALL LAYERS
    SAVE BUDGET
    PRINT HEAD FOR ALL LAYERS
    PRINT BUDGET
 UBDSV1 SAVING "         STORAGE" ON UNIT  53 AT TIME STEP  8, STRESS PERIOD   2
 UBDSV2 SAVING "   CONSTANT HEAD" ON UNIT  53 AT TIME STEP  8, STRESS PERIOD   2
 UBDSV1 SAVING "FLOW RIGHT FACE " ON UNIT  53 AT TIME STEP  8, STRESS PERIOD   2
 UBDSV1 SAVING "FLOW FRONT FACE " ON UNIT  53 AT TIME STEP  8, STRESS PERIOD   2
1
              HEAD IN LAYER   1 AT END OF TIME STEP   8 IN STRESS PERIOD    2
  ---------------------------------------------------------------------------

            1           2           3           4           5           6           7           8           9          10
           11          12          13          14          15          16          17          18          19          20
 ........................................................................................................................
   1    9.990       9.507       9.019       8.528       8.032       7.532       7.028       6.519       6.006       5.488    
        4.965       4.437       3.903       3.365       2.821       2.271       1.715       1.154      0.5859      1.1554E-02
   2    9.990       9.507       9.019       8.528       8.032       7.532       7.028       6.519       6.006       5.488    
        4.965       4.437       3.903       3.365       2.821       2.271       1.715       1.154      0.5859      1.1554E-02
   3    9.990       9.507       9.019       8.528       8.032       7.532       7.028       6.519       6.006       5.488    
        4.965       4.437       3.903       3.365       2.821       2.271       1.715       1.154      0.5859      1.1554E-02
   4    9.990       9.507       9.019       8.528       8.032       7.532       7.028       6.519       6.006       5.488    
        4.965       4.437       3.903       3.365       2.821       2.271       1.715       1.154      0.5859      1.1554E-02
   5    9.990       9.507       9.019       8.528       8.032       7.532       7.028       6.519       6.006       5.488    
        4.965       4.437       3.903       3.365       2.821       2.271       1.715       1.154      0.5859      1.1554E-02
   6    9.990       9.507       9.019       8.528       8.032       7.532       7.028       6.519       6.006       5.488    
        4.965       4.437       3.903       3.365       2.821       2.271       1.715       1.154      0.5859      1.1554E-02
   7    9.990       9.507       9.019       8.528       8.032       7.532       7.028       6.519       6.006       5.488    
        4.965       4.437       3.903       3.365       2.821       2.271       1.715       1.154      0.5859      1.1554E-02
   8    9.990       9.507       9.019       8.528       8.032       7.532       7.028       6.519       6.006       5.488    
        4.965       4.437       3.903       3.365       2.821       2.271       1.715       1.154      0.5859      1.1554E-02
   9    9.990       9.507       9.019       8.528       8.032       7.532       7.028       6.519       6.006       5.488    
        4.965       4.437       3.903       3.365       2.821       2.271       1.715       1.154      0.5859      1.1554E-02
  10    9.990       9.507       9.019       8.528       8.032       7.532       7.028       6.519       6.006       5.488    
        4.965       4.437       3.903       3.365       2.821       2.271       1.715       1.154      0.5859      1.1554E-02

 HEAD WILL BE SAVED ON UNIT   51 AT END OF TIME STEP   8, STRESS PERIOD    2

 DRAWDOWN WILL BE SAVED ON UNIT   52 AT END OF TIME STEP   8, STRESS PERIOD    2
1
  VOLUMETRIC BUDGET FOR ENTIRE MODEL AT END OF TIME STEP  8 IN STRESS PERIOD   2
  ------------------------------------------------------------------------------

     CUMULATIVE VOLUMES      L**3       RATES FOR THIS TIME STEP      L**3/T
     ------------------                 ------------------------

           IN:                                      IN:
           ---                                      ---
             STORAGE =       1.9597E-02               STORAGE =       2.4033E-03
       CONSTANT HEAD =           0.0000         CONSTANT HEAD =           0.0000
               WELLS =           0.0000                 WELLS =           0.0000
     HEAD DEP BOUNDS =        5199.3296       HEAD DEP BOUNDS =         577.7015

            TOTAL IN =        5199.3491              TOTAL IN =         577.7039

          OUT:                                     OUT:
          ----                                     ----
             STORAGE =       1.3428E-02               STORAGE =       1.8311E-03
       CONSTANT HEAD =           0.0000         CONSTANT HEAD =           0.0000
               WELLS =           0.0000                 WELLS =           0.0000
     HEAD DEP BOUNDS =        5199.4736       HEAD DEP BOUNDS =         577.7195

           TOTAL OUT =        5199.4873             TOTAL OUT =         577.7213

            IN - OUT =          -0.1382              IN - OUT =      -1.7456E-02

 PERCENT DISCREPANCY =           0.00     PERCENT DISCREPANCY =           0.00






          TIME SUMMARY AT END OF TIME STEP   8 IN STRESS PERIOD    2
                    SECONDS     MINUTES      HOURS       DAYS        YEARS
                    -----------------------------------------------------------
   TIME STEP LENGTH  86400.      1440.0      24.000      1.0000     2.73785E-03
 STRESS PERIOD TIME 6.91200E+05  11520.      192.00      8.0000     2.19028E-02
         TOTAL TIME 7.77600E+05  12960.      216.00      9.0000     2.46407E-02
1
 
 SOLVING FOR HEAD 

 OUTPUT CONTROL FOR STRESS PERIOD    2   TIME STEP   9
    SAVE HEAD FOR ALL LAYERS
    SAVE DRAWDOWN FOR ALL LAYERS
    SAVE BUDGET
    PRINT HEAD FOR ALL LAYERS
    PRINT BUDGET
 UBDSV1 SAVING "         STORAGE" ON UNIT  53 AT TIME STEP  9, STRESS PERIOD   2
 UBDSV2 SAVING "   CONSTANT HEAD" ON UNIT  53 AT TIME STEP  9, STRESS PERIOD   2
 UBDSV1 SAVING "FLOW RIGHT FACE " ON UNIT  53 AT TIME STEP  9, STRESS PERIOD   2
 UBDSV1 SAVING "FLOW FRONT FACE " ON UNIT  53 AT TIME STEP  9, STRESS PERIOD   2
1
              HEAD IN LAYER   1 AT END OF TIME STEP   9 IN STRESS PERIOD    2
  ---------------------------------------------------------------------------

            1           2           3           4           5           6           7           8           9          10
           11          12          13          14          15          16          17          18          19          20
 ........................................................................................................................
   1    9.990       9.507       9.019       8.528       8.032       7.532       7.028       6.519       6.006       5.488    
        4.965       4.437       3.903       3.365       2.821       2.271       1.715       1.154      0.5859      1.1554E-02
   2    9.990       9.507       9.019       8.528       8.032       7.532       7.028       6.519       6.006       5.488    
        4.965       4.437       3.903       3.365       2.821       2.271       1.715       1.154      0.5859      1.1554E-02
   3    9.990       9.507       9.019       8.528       8.032       7.532       7.028       6.519       6.006       5.488    
        4.965       4.437       3.903       3.365       2.821       2.271       1.715       1.154      0.5859      1.1554E-02
   4    9.990       9.507       9.019       8.528       8.032       7.532       7.028       6.519       6.006       5.488    
        4.965       4.437       3.903       3.365       2.821       2.271       1.715       1.154      0.5859      1.1554E-02
   5    9.990       9.507       9.019       8.528       8.032       7.532       7.028       6.519       6.006       5.488    
        4.965       4.437       3.903       3.365       2.821       2.271       1.715       1.154      0.5859      1.1554E-02
   6    9.990       9.507       9.019       8.528       8.032       7.532       7.028       6.519       6.006       5.488    
        4.965       4.437       3.903       3.365       2.821       2.271       1.715       1.154      0.5859      1.1554E-02
   7    9.990       9.507       9.019       8.528       8.032       7.532       7.028       6.519       6.006       5.488    
        4.965       4.437       3.903       3.365       2.821       2.271       1.715       1.154      0.5859      1.1554E-02
   8    9.990       9.507       9.019       8.528       8.032       7.532       7.028       6.519       6.006       5.488    
        4.965       4.437       3.903       3.365       2.821       2.271       1.715       1.154      0.5859      1.1554E-02
   9    9.990       9.507       9.019       8.528       8.032       7.532       7.028       6.519       6.006       5.488    
        4.965       4.437       3.903       3.365       2.821       2.271       1.715       1.154      0.5859      1.1554E-02
  10    9.990       9.507       9.019       8.528       8.032       7.532       7.028       6.519       6.006       5.488    
        4.965       4.437       3.903       3.365       2.821       2.271       1.715       1.154      0.5859      1.1554E-02

 HEAD WILL BE SAVED ON UNIT   51 AT END OF TIME STEP   9, STRESS PERIOD    2

 DRAWDOWN WILL BE SAVED ON UNIT   52 AT END OF TIME STEP   9, STRESS PERIOD    2
1
  VOLUMETRIC BUDGET FOR ENTIRE MODEL AT END OF TIME STEP  9 IN STRESS PERIOD   2
  ------------------------------------------------------------------------------

     CUMULATIVE VOLUMES      L**3       RATES FOR THIS TIME STEP      L**3/T
     ------------------                 ------------------------

           IN:                                      IN:
           ---                                      ---
             STORAGE =       2.2000E-02               STORAGE =       2.4033E-03
       CONSTANT HEAD =           0.0000         CONSTANT HEAD =           0.0000
               WELLS =           0.0000                 WELLS =           0.0000
     HEAD DEP BOUNDS =        5777.0312       HEAD DEP BOUNDS =         577.7015

            TOTAL IN =        5777.0532              TOTAL IN =         577.7039

          OUT:                                     OUT:
          ----                                     ----
             STORAGE =       1.5259E-02               STORAGE =       1.8311E-03
       CONSTANT HEAD =           0.0000         CONSTANT HEAD =           0.0000
               WELLS =           0.0000                 WELLS =           0.0000
     HEAD DEP BOUNDS =        5777.1934       HEAD DEP BOUNDS =         577.7195

           TOTAL OUT =        5777.2085             TOTAL OUT =         577.7213

            IN - OUT =          -0.1553              IN - OUT =      -1.7456E-02

 PERCENT DISCREPANCY =           0.00     PERCENT DISCREPANCY =           0.00






          TIME SUMMARY AT END OF TIME STEP   9 IN STRESS PERIOD    2
                    SECONDS     MINUTES      HOURS       DAYS        YEARS
                    -----------------------------------------------------------
   TIME STEP LENGTH  86400.      1440.0      24.000      1.0000     2.73785E-03
 STRESS PERIOD TIME 7.77600E+05  12960.      216.00      9.0000     2.46407E-02
         TOTAL TIME 8.64000E+05  14400.      240.00      10.000     2.73785E-02
1
 
 SOLVING FOR HEAD 

 OUTPUT CONTROL FOR STRESS PERIOD    2   TIME STEP  10
    SAVE HEAD FOR ALL LAYERS
    SAVE DRAWDOWN FOR ALL LAYERS
    SAVE BUDGET
    PRINT HEAD FOR ALL LAYERS
    PRINT BUDGET
 UBDSV1 SAVING "         STORAGE" ON UNIT  53 AT TIME STEP 10, STRESS PERIOD   2
 UBDSV2 SAVING "   CONSTANT HEAD" ON UNIT  53 AT TIME STEP 10, STRESS PERIOD   2
 UBDSV1 SAVING "FLOW RIGHT FACE " ON UNIT  53 AT TIME STEP 10, STRESS PERIOD   2
 UBDSV1 SAVING "FLOW FRONT FACE " ON UNIT  53 AT TIME STEP 10, STRESS PERIOD   2
1
              HEAD IN LAYER   1 AT END OF TIME STEP  10 IN STRESS PERIOD    2
  ---------------------------------------------------------------------------

            1           2           3           4           5           6           7           8           9          10
           11          12          13          14          15          16          17          18          19          20
 ........................................................................................................................
   1    9.990       9.507       9.019       8.528       8.032       7.532       7.028       6.519       6.006       5.488    
        4.965       4.437       3.903       3.365       2.821       2.271       1.715       1.154      0.5859      1.1554E-02
   2    9.990       9.507       9.019       8.528       8.032       7.532       7.028       6.519       6.006       5.488    
        4.965       4.437       3.903       3.365       2.821       2.271       1.715       1.154      0.5859      1.1554E-02
   3    9.990       9.507       9.019       8.528       8.032       7.532       7.028       6.519       6.006       5.488    
        4.965       4.437       3.903       3.365       2.821       2.271       1.715       1.154      0.5859      1.1554E-02
   4    9.990       9.507       9.019       8.528       8.032       7.532       7.028       6.519       6.006       5.488    
        4.965       4.437       3.903       3.365       2.821       2.271       1.715       1.154      0.5859      1.1554E-02
   5    9.990       9.507       9.019       8.528       8.032       7.532       7.028       6.519       6.006       5.488    
        4.965       4.437       3.903       3.365       2.821       2.271       1.715       1.154      0.5859      1.1554E-02
   6    9.990       9.507       9.019       8.528       8.032       7.532       7.028       6.519       6.006       5.488    
        4.965       4.437       3.903       3.365       2.821       2.271       1.715       1.154      0.5859      1.1554E-02
   7    9.990       9.507       9.019       8.528       8.032       7.532       7.028       6.519       6.006       5.488    
        4.965       4.437       3.903       3.365       2.821       2.271       1.715       1.154      0.5859      1.1554E-02
   8    9.990       9.507       9.019       8.528       8.032       7.532       7.028       6.519       6.006       5.488    
        4.965       4.437       3.903       3.365       2.821       2.271       1.715       1.154      0.5859      1.1554E-02
   9    9.990       9.507       9.019       8.528       8.032       7.532       7.028       6.519       6.006       5.488    
        4.965       4.437       3.903       3.365       2.821       2.271       1.715       1.154      0.5859      1.1554E-02
  10    9.990       9.507       9.019       8.528       8.032       7.532       7.028       6.519       6.006       5.488    
        4.965       4.437       3.903       3.365       2.821       2.271       1.715       1.154      0.5859      1.1554E-02

 HEAD WILL BE SAVED ON UNIT   51 AT END OF TIME STEP  10, STRESS PERIOD    2

 DRAWDOWN WILL BE SAVED ON UNIT   52 AT END OF TIME STEP  10, STRESS PERIOD    2
1
  VOLUMETRIC BUDGET FOR ENTIRE MODEL AT END OF TIME STEP 10 IN STRESS PERIOD   2
  ------------------------------------------------------------------------------

     CUMULATIVE VOLUMES      L**3       RATES FOR THIS TIME STEP      L**3/T
     ------------------                 ------------------------

           IN:                                      IN:
           ---                                      ---
             STORAGE =       2.4403E-02               STORAGE =       2.4033E-03
       CONSTANT HEAD =           0.0000         CONSTANT HEAD =           0.0000
               WELLS =           0.0000                 WELLS =           0.0000
     HEAD DEP BOUNDS =        6354.7329       HEAD DEP BOUNDS =         577.7015

            TOTAL IN =        6354.7573              TOTAL IN =         577.7039

          OUT:                                     OUT:
          ----                                     ----
             STORAGE =       1.7090E-02               STORAGE =       1.8311E-03
       CONSTANT HEAD =           0.0000         CONSTANT HEAD =           0.0000
               WELLS =           0.0000                 WELLS =           0.0000
     HEAD DEP BOUNDS =        6354.9131       HEAD DEP BOUNDS =         577.7195

           TOTAL OUT =        6354.9302             TOTAL OUT =         577.7213

            IN - OUT =          -0.1729              IN - OUT =      -1.7456E-02

 PERCENT DISCREPANCY =           0.00     PERCENT DISCREPANCY =           0.00






          TIME SUMMARY AT END OF TIME STEP  10 IN STRESS PERIOD    2
                    SECONDS     MINUTES      HOURS       DAYS        YEARS
                    -----------------------------------------------------------
   TIME STEP LENGTH  86400.      1440.0      24.000      1.0000     2.73785E-03
 STRESS PERIOD TIME 8.64000E+05  14400.      240.00      10.000     2.73785E-02
         TOTAL TIME 9.50400E+05  15840.      264.00      11.000     3.01164E-02
1
 
 SOLVING FOR HEAD 

 OUTPUT CONTROL FOR STRESS PERIOD    2   TIME STEP  11
    SAVE HEAD FOR ALL LAYERS
    SAVE DRAWDOWN FOR ALL LAYERS
    SAVE BUDGET
    PRINT HEAD FOR ALL LAYERS
    PRINT BUDGET
 UBDSV1 SAVING "         STORAGE" ON UNIT  53 AT TIME STEP 11, STRESS PERIOD   2
 UBDSV2 SAVING "   CONSTANT HEAD" ON UNIT  53 AT TIME STEP 11, STRESS PERIOD   2
 UBDSV1 SAVING "FLOW RIGHT FACE " ON UNIT  53 AT TIME STEP 11, STRESS PERIOD   2
 UBDSV1 SAVING "FLOW FRONT FACE " ON UNIT  53 AT TIME STEP 11, STRESS PERIOD   2
1
              HEAD IN LAYER   1 AT END OF TIME STEP  11 IN STRESS PERIOD    2
  ---------------------------------------------------------------------------

            1           2           3           4           5           6           7           8           9          10
           11          12          13          14          15          16          17          18          19          20
 ........................................................................................................................
   1    9.990       9.507       9.019       8.528       8.032       7.532       7.028       6.519       6.006       5.488    
        4.965       4.437       3.903       3.365       2.821       2.271       1.715       1.154      0.5859      1.1554E-02
   2    9.990       9.507       9.019       8.528       8.032       7.532       7.028       6.519       6.006       5.488    
        4.965       4.437       3.903       3.365       2.821       2.271       1.715       1.154      0.5859      1.1554E-02
   3    9.990       9.507       9.019       8.528       8.032       7.532       7.028       6.519       6.006       5.488    
        4.965       4.437       3.903       3.365       2.821       2.271       1.715       1.154      0.5859      1.1554E-02
   4    9.990       9.507       9.019       8.528       8.032       7.532       7.028       6.519       6.006       5.488    
        4.965       4.437       3.903       3.365       2.821       2.271       1.715       1.154      0.5859      1.1554E-02
   5    9.990       9.507       9.019       8.528       8.032       7.532       7.028       6.519       6.006       5.488    
        4.965       4.437       3.903       3.365       2.821       2.271       1.715       1.154      0.5859      1.1554E-02
   6    9.990       9.507       9.019       8.528       8.032       7.532       7.028       6.519       6.006       5.488    
        4.965       4.437       3.903       3.365       2.821       2.271       1.715       1.154      0.5859      1.1554E-02
   7    9.990       9.507       9.019       8.528       8.032       7.532       7.028       6.519       6.006       5.488    
        4.965       4.437       3.903       3.365       2.821       2.271       1.715       1.154      0.5859      1.1554E-02
   8    9.990       9.507       9.019       8.528       8.032       7.532       7.028       6.519       6.006       5.488    
        4.965       4.437       3.903       3.365       2.821       2.271       1.715       1.154      0.5859      1.1554E-02
   9    9.990       9.507       9.019       8.528       8.032       7.532       7.028       6.519       6.006       5.488    
        4.965       4.437       3.903       3.365       2.821       2.271       1.715       1.154      0.5859      1.1554E-02
  10    9.990       9.507       9.019       8.528       8.032       7.532       7.028       6.519       6.006       5.488    
        4.965       4.437       3.903       3.365       2.821       2.271       1.715       1.154      0.5859      1.1554E-02

 HEAD WILL BE SAVED ON UNIT   51 AT END OF TIME STEP  11, STRESS PERIOD    2

 DRAWDOWN WILL BE SAVED ON UNIT   52 AT END OF TIME STEP  11, STRESS PERIOD    2
1
  VOLUMETRIC BUDGET FOR ENTIRE MODEL AT END OF TIME STEP 11 IN STRESS PERIOD   2
  ------------------------------------------------------------------------------

     CUMULATIVE VOLUMES      L**3       RATES FOR THIS TIME STEP      L**3/T
     ------------------                 ------------------------

           IN:                                      IN:
           ---                                      ---
             STORAGE =       2.6806E-02               STORAGE =       2.4033E-03
       CONSTANT HEAD =           0.0000         CONSTANT HEAD =           0.0000
               WELLS =           0.0000                 WELLS =           0.0000
     HEAD DEP BOUNDS =        6932.4346       HEAD DEP BOUNDS =         577.7015

            TOTAL IN =        6932.4614              TOTAL IN =         577.7039

          OUT:                                     OUT:
          ----                                     ----
             STORAGE =       1.8921E-02               STORAGE =       1.8311E-03
       CONSTANT HEAD =           0.0000         CONSTANT HEAD =           0.0000
               WELLS =           0.0000                 WELLS =           0.0000
     HEAD DEP BOUNDS =        6932.6328       HEAD DEP BOUNDS =         577.7195

           TOTAL OUT =        6932.6519             TOTAL OUT =         577.7213

            IN - OUT =          -0.1904              IN - OUT =      -1.7456E-02

 PERCENT DISCREPANCY =           0.00     PERCENT DISCREPANCY =           0.00






          TIME SUMMARY AT END OF TIME STEP  11 IN STRESS PERIOD    2
                    SECONDS     MINUTES      HOURS       DAYS        YEARS
                    -----------------------------------------------------------
   TIME STEP LENGTH  86400.      1440.0      24.000      1.0000     2.73785E-03
 STRESS PERIOD TIME 9.50400E+05  15840.      264.00      11.000     3.01164E-02
         TOTAL TIME 1.03680E+06  17280.      288.00      12.000     3.28542E-02
1
 
 SOLVING FOR HEAD 

 OUTPUT CONTROL FOR STRESS PERIOD    2   TIME STEP  12
    SAVE HEAD FOR ALL LAYERS
    SAVE DRAWDOWN FOR ALL LAYERS
    SAVE BUDGET
    PRINT HEAD FOR ALL LAYERS
    PRINT BUDGET
 UBDSV1 SAVING "         STORAGE" ON UNIT  53 AT TIME STEP 12, STRESS PERIOD   2
 UBDSV2 SAVING "   CONSTANT HEAD" ON UNIT  53 AT TIME STEP 12, STRESS PERIOD   2
 UBDSV1 SAVING "FLOW RIGHT FACE " ON UNIT  53 AT TIME STEP 12, STRESS PERIOD   2
 UBDSV1 SAVING "FLOW FRONT FACE " ON UNIT  53 AT TIME STEP 12, STRESS PERIOD   2
1
              HEAD IN LAYER   1 AT END OF TIME STEP  12 IN STRESS PERIOD    2
  ---------------------------------------------------------------------------

            1           2           3           4           5           6           7           8           9          10
           11          12          13          14          15          16          17          18          19          20
 ........................................................................................................................
   1    9.990       9.507       9.019       8.528       8.032       7.532       7.028       6.519       6.006       5.488    
        4.965       4.437       3.903       3.365       2.821       2.271       1.715       1.154      0.5859      1.1554E-02
   2    9.990       9.507       9.019       8.528       8.032       7.532       7.028       6.519       6.006       5.488    
[...]
   9    9.990       9.472       8.949       8.422       7.890       7.354       6.817       6.280       5.748       5.222    
        4.704       4.192       3.684       3.177       2.666       2.150       1.626       1.095      0.5566      1.0976E-02
  10    9.990       9.482       8.969       8.453       7.933       7.410       6.885       6.360       5.835       5.313    
        4.793       4.274       3.756       3.237       2.714       2.186       1.652       1.112      0.5649      1.1139E-02

 HEAD WILL BE SAVED ON UNIT   51 AT END OF TIME STEP  97, STRESS PERIOD    3

 DRAWDOWN WILL BE SAVED ON UNIT   52 AT END OF TIME STEP  97, STRESS PERIOD    3
1
  VOLUMETRIC BUDGET FOR ENTIRE MODEL AT END OF TIME STEP 97 IN STRESS PERIOD   3
  ------------------------------------------------------------------------------

     CUMULATIVE VOLUMES      L**3       RATES FOR THIS TIME STEP      L**3/T
     ------------------                 ------------------------

           IN:                                      IN:
           ---                                      ---
             STORAGE =       43297.0742               STORAGE =         354.5236
       CONSTANT HEAD =           0.0000         CONSTANT HEAD =           0.0000
               WELLS =           0.0000                 WELLS =           0.0000
     HEAD DEP BOUNDS =      117618.1016       HEAD DEP BOUNDS =         663.6707

            TOTAL IN =      160915.1719              TOTAL IN =        1018.1943

          OUT:                                     OUT:
          ----                                     ----
             STORAGE =           0.1866               STORAGE =           0.0000
       CONSTANT HEAD =           0.0000         CONSTANT HEAD =           0.0000
               WELLS =       48500.0000                 WELLS =         500.0000
     HEAD DEP BOUNDS =      112416.8281       HEAD DEP BOUNDS =         518.1899

           TOTAL OUT =      160917.0156             TOTAL OUT =        1018.1899

            IN - OUT =          -1.8438              IN - OUT =       4.4556E-03

 PERCENT DISCREPANCY =           0.00     PERCENT DISCREPANCY =           0.00






          TIME SUMMARY AT END OF TIME STEP  97 IN STRESS PERIOD    3
                    SECONDS     MINUTES      HOURS       DAYS        YEARS
                    -----------------------------------------------------------
   TIME STEP LENGTH  86400.      1440.0      24.000      1.0000     2.73785E-03
 STRESS PERIOD TIME 8.38080E+06 1.39680E+05  2328.0      97.000     0.26557    
         TOTAL TIME 1.71072E+07 2.85120E+05  4752.0      198.00     0.54209    
1
 
 SOLVING FOR HEAD 

 OUTPUT CONTROL FOR STRESS PERIOD    3   TIME STEP  98
    SAVE HEAD FOR ALL LAYERS
    SAVE DRAWDOWN FOR ALL LAYERS
    SAVE BUDGET
    PRINT HEAD FOR ALL LAYERS
    PRINT BUDGET
 UBDSV1 SAVING "         STORAGE" ON UNIT  53 AT TIME STEP 98, STRESS PERIOD   3
 UBDSV2 SAVING "   CONSTANT HEAD" ON UNIT  53 AT TIME STEP 98, STRESS PERIOD   3
 UBDSV1 SAVING "FLOW RIGHT FACE " ON UNIT  53 AT TIME STEP 98, STRESS PERIOD   3
 UBDSV1 SAVING "FLOW FRONT FACE " ON UNIT  53 AT TIME STEP 98, STRESS PERIOD   3
1
              HEAD IN LAYER   1 AT END OF TIME STEP  98 IN STRESS PERIOD    3
  ---------------------------------------------------------------------------

            1           2           3           4           5           6           7           8           9          10
           11          12          13          14          15          16          17          18          19          20
 ........................................................................................................................
   1    9.989       9.458       8.922       8.381       7.835       7.286       6.737       6.191       5.652       5.123    
        4.607       4.101       3.601       3.105       2.606       2.102       1.591       1.072      0.5450      1.0745E-02
   2    9.989       9.445       8.894       8.335       7.769       7.197       6.623       6.052       5.493       4.956    
        4.445       3.957       3.481       3.009       2.533       2.049       1.555       1.049      0.5339      1.0526E-02
   3    9.989       9.420       8.842       8.251       7.644       7.020       6.383       5.743       5.122       4.552    
        4.067       3.636       3.227       2.817       2.394       1.951       1.489       1.009      0.5147      1.0146E-02
   4    9.988       9.394       8.786       8.154       7.490       6.783       6.026       5.220       4.393       3.654    
        3.324       3.092       2.849       2.561       2.222       1.839       1.417      0.9667      0.4948      9.7536E-03
   5    9.988       9.382       8.758       8.102       7.397       6.615       5.711       4.601       3.115      0.8748    
        2.019       2.449       2.515       2.379       2.119       1.778       1.382      0.9470      0.4859      9.5773E-03
   6    9.988       9.395       8.788       8.158       7.495       6.789       6.033       5.227       4.401       3.662    
        3.332       3.100       2.856       2.566       2.227       1.843       1.420      0.9687      0.4958      9.7737E-03
   7    9.989       9.424       8.849       8.261       7.657       7.035       6.401       5.763       5.142       4.573    
        4.087       3.656       3.245       2.833       2.407       1.962       1.497       1.014      0.5174      1.0198E-02
   8    9.989       9.451       8.907       8.355       7.796       7.230       6.661       6.094       5.538       5.002    
        4.491       4.000       3.520       3.043       2.562       2.072       1.572       1.061      0.5396      1.0638E-02
   9    9.990       9.471       8.948       8.420       7.887       7.351       6.813       6.277       5.744       5.218    
        4.700       4.189       3.681       3.173       2.663       2.147       1.624       1.094      0.5560      1.0963E-02
  10    9.990       9.481       8.968       8.451       7.931       7.407       6.882       6.357       5.832       5.310    
        4.790       4.271       3.753       3.234       2.711       2.184       1.651       1.111      0.5644      1.1128E-02

 HEAD WILL BE SAVED ON UNIT   51 AT END OF TIME STEP  98, STRESS PERIOD    3

 DRAWDOWN WILL BE SAVED ON UNIT   52 AT END OF TIME STEP  98, STRESS PERIOD    3
1
  VOLUMETRIC BUDGET FOR ENTIRE MODEL AT END OF TIME STEP 98 IN STRESS PERIOD   3
  ------------------------------------------------------------------------------

     CUMULATIVE VOLUMES      L**3       RATES FOR THIS TIME STEP      L**3/T
     ------------------                 ------------------------

           IN:                                      IN:
           ---                                      ---
             STORAGE =       43649.5781               STORAGE =         352.5040
       CONSTANT HEAD =           0.0000         CONSTANT HEAD =           0.0000
               WELLS =           0.0000                 WELLS =           0.0000
     HEAD DEP BOUNDS =      118282.8438       HEAD DEP BOUNDS =         664.7450

            TOTAL IN =      161932.4219              TOTAL IN =        1017.2490

          OUT:                                     OUT:
          ----                                     ----
             STORAGE =           0.1866               STORAGE =           0.0000
       CONSTANT HEAD =           0.0000         CONSTANT HEAD =           0.0000
               WELLS =       49000.0000                 WELLS =         500.0000
     HEAD DEP BOUNDS =      112934.0703       HEAD DEP BOUNDS =         517.2453

           TOTAL OUT =      161934.2500             TOTAL OUT =        1017.2453

            IN - OUT =          -1.8281              IN - OUT =       3.6621E-03

 PERCENT DISCREPANCY =           0.00     PERCENT DISCREPANCY =           0.00






          TIME SUMMARY AT END OF TIME STEP  98 IN STRESS PERIOD    3
                    SECONDS     MINUTES      HOURS       DAYS        YEARS
                    -----------------------------------------------------------
   TIME STEP LENGTH  86400.      1440.0      24.000      1.0000     2.73785E-03
 STRESS PERIOD TIME 8.46720E+06 1.41120E+05  2352.0      98.000     0.26831    
         TOTAL TIME 1.71936E+07 2.86560E+05  4776.0      199.00     0.54483    
1
 
 SOLVING FOR HEAD 

 OUTPUT CONTROL FOR STRESS PERIOD    3   TIME STEP  99
    SAVE HEAD FOR ALL LAYERS
    SAVE DRAWDOWN FOR ALL LAYERS
    SAVE BUDGET
    PRINT HEAD FOR ALL LAYERS
    PRINT BUDGET
 UBDSV1 SAVING "         STORAGE" ON UNIT  53 AT TIME STEP 99, STRESS PERIOD   3
 UBDSV2 SAVING "   CONSTANT HEAD" ON UNIT  53 AT TIME STEP 99, STRESS PERIOD   3
 UBDSV1 SAVING "FLOW RIGHT FACE " ON UNIT  53 AT TIME STEP 99, STRESS PERIOD   3
 UBDSV1 SAVING "FLOW FRONT FACE " ON UNIT  53 AT TIME STEP 99, STRESS PERIOD   3
1
              HEAD IN LAYER   1 AT END OF TIME STEP  99 IN STRESS PERIOD    3
  ---------------------------------------------------------------------------

            1           2           3           4           5           6           7           8           9          10
           11          12          13          14          15          16          17          18          19          20
 ........................................................................................................................
   1    9.989       9.457       8.920       8.378       7.832       7.282       6.732       6.186       5.646       5.118    
        4.601       4.095       3.596       3.100       2.602       2.099       1.589       1.070      0.5441      1.0728E-02
   2    9.989       9.444       8.892       8.333       7.766       7.193       6.618       6.047       5.487       4.950    
        4.439       3.951       3.476       3.004       2.529       2.046       1.552       1.047      0.5330      1.0507E-02
   3    9.989       9.419       8.840       8.248       7.640       7.016       6.378       5.737       5.115       4.545    
        4.060       3.630       3.221       2.812       2.389       1.947       1.486       1.007      0.5136      1.0125E-02
   4    9.988       9.393       8.784       8.151       7.486       6.778       6.020       5.213       4.386       3.647    
        3.317       3.085       2.842       2.554       2.217       1.834       1.414      0.9644      0.4936      9.7300E-03
   5    9.988       9.381       8.755       8.099       7.393       6.610       5.705       4.594       3.107      0.8667    
        2.011       2.441       2.508       2.373       2.114       1.774       1.379      0.9446      0.4847      9.5531E-03
   6    9.988       9.394       8.786       8.155       7.491       6.784       6.027       5.221       4.394       3.655    
        3.325       3.093       2.849       2.561       2.222       1.838       1.417      0.9665      0.4947      9.7508E-03
   7    9.989       9.423       8.847       8.258       7.653       7.031       6.396       5.757       5.136       4.566    
        4.081       3.650       3.240       2.828       2.402       1.958       1.494       1.012      0.5164      1.0179E-02
   8    9.989       9.451       8.906       8.353       7.793       7.226       6.657       6.090       5.533       4.997    
        4.486       3.995       3.515       3.039       2.558       2.069       1.569       1.059      0.5388      1.0622E-02
   9    9.990       9.471       8.947       8.418       7.885       7.348       6.810       6.273       5.740       5.214    
        4.696       4.185       3.677       3.170       2.660       2.145       1.623       1.093      0.5554      1.0950E-02
  10    9.990       9.481       8.967       8.450       7.929       7.405       6.879       6.353       5.829       5.306    
        4.786       4.268       3.750       3.231       2.709       2.182       1.649       1.110      0.5638      1.1117E-02

 HEAD WILL BE SAVED ON UNIT   51 AT END OF TIME STEP  99, STRESS PERIOD    3

 DRAWDOWN WILL BE SAVED ON UNIT   52 AT END OF TIME STEP  99, STRESS PERIOD    3
1
  VOLUMETRIC BUDGET FOR ENTIRE MODEL AT END OF TIME STEP 99 IN STRESS PERIOD   3
  ------------------------------------------------------------------------------

     CUMULATIVE VOLUMES      L**3       RATES FOR THIS TIME STEP      L**3/T
     ------------------                 ------------------------

           IN:                                      IN:
           ---                                      ---
             STORAGE =       44000.0703               STORAGE =         350.4924
       CONSTANT HEAD =           0.0000         CONSTANT HEAD =           0.0000
               WELLS =           0.0000                 WELLS =           0.0000
     HEAD DEP BOUNDS =      118948.6562       HEAD DEP BOUNDS =         665.8096

            TOTAL IN =      162948.7188              TOTAL IN =        1016.3020

          OUT:                                     OUT:
          ----                                     ----
             STORAGE =           0.1866               STORAGE =           0.0000
       CONSTANT HEAD =           0.0000         CONSTANT HEAD =           0.0000
               WELLS =       49500.0000                 WELLS =         500.0000
     HEAD DEP BOUNDS =      113450.3750       HEAD DEP BOUNDS =         516.3040

           TOTAL OUT =      162950.5625             TOTAL OUT =        1016.3040

            IN - OUT =          -1.8438              IN - OUT =      -1.9531E-03

 PERCENT DISCREPANCY =           0.00     PERCENT DISCREPANCY =           0.00






          TIME SUMMARY AT END OF TIME STEP  99 IN STRESS PERIOD    3
                    SECONDS     MINUTES      HOURS       DAYS        YEARS
                    -----------------------------------------------------------
   TIME STEP LENGTH  86400.      1440.0      24.000      1.0000     2.73785E-03
 STRESS PERIOD TIME 8.55360E+06 1.42560E+05  2376.0      99.000     0.27105    
         TOTAL TIME 1.72800E+07 2.88000E+05  4800.0      200.00     0.54757    
1
 
 SOLVING FOR HEAD 

 OUTPUT CONTROL FOR STRESS PERIOD    3   TIME STEP 100
    SAVE HEAD FOR ALL LAYERS
    SAVE DRAWDOWN FOR ALL LAYERS
    SAVE BUDGET
    PRINT HEAD FOR ALL LAYERS
    PRINT BUDGET
 UBDSV1 SAVING "         STORAGE" ON UNIT  53 AT TIME STEP100, STRESS PERIOD   3
 UBDSV2 SAVING "   CONSTANT HEAD" ON UNIT  53 AT TIME STEP100, STRESS PERIOD   3
 UBDSV1 SAVING "FLOW RIGHT FACE " ON UNIT  53 AT TIME STEP100, STRESS PERIOD   3
 UBDSV1 SAVING "FLOW FRONT FACE " ON UNIT  53 AT TIME STEP100, STRESS PERIOD   3
1
              HEAD IN LAYER   1 AT END OF TIME STEP 100 IN STRESS PERIOD    3
  ---------------------------------------------------------------------------

            1           2           3           4           5           6           7           8           9          10
           11          12          13          14          15          16          17          18          19          20
 ........................................................................................................................
   1    9.989       9.457       8.919       8.376       7.828       7.278       6.728       6.181       5.641       5.112    
        4.596       4.090       3.592       3.096       2.598       2.096       1.586       1.069      0.5433      1.0710E-02
   2    9.989       9.443       8.890       8.330       7.762       7.189       6.613       6.041       5.482       4.944    
        4.433       3.945       3.470       2.999       2.524       2.042       1.549       1.046      0.5320      1.0488E-02
   3    9.989       9.418       8.838       8.245       7.636       7.011       6.372       5.731       5.109       4.538    
        4.054       3.624       3.215       2.806       2.384       1.943       1.483       1.005      0.5125      1.0103E-02
   4    9.988       9.392       8.781       8.148       7.481       6.773       6.014       5.206       4.379       3.639    
        3.309       3.078       2.836       2.548       2.212       1.830       1.411      0.9621      0.4925      9.7067E-03
   5    9.988       9.379       8.753       8.096       7.388       6.605       5.699       4.588       3.100      0.8587    
        2.004       2.434       2.501       2.366       2.108       1.769       1.375      0.9423      0.4834      9.5291E-03
   6    9.988       9.393       8.784       8.152       7.486       6.779       6.021       5.214       4.387       3.648    
        3.317       3.086       2.843       2.555       2.217       1.834       1.414      0.9642      0.4935      9.7281E-03
   7    9.989       9.422       8.845       8.255       7.649       7.027       6.391       5.751       5.130       4.560    
        4.075       3.644       3.234       2.823       2.398       1.954       1.491       1.010      0.5154      1.0159E-02
   8    9.989       9.450       8.904       8.351       7.790       7.223       6.653       6.085       5.528       4.992    
        4.481       3.990       3.511       3.035       2.554       2.066       1.567       1.057      0.5380      1.0606E-02
   9    9.990       9.470       8.946       8.416       7.882       7.345       6.807       6.269       5.736       5.210    
        4.692       4.181       3.674       3.167       2.657       2.142       1.621       1.092      0.5547      1.0937E-02
  10    9.990       9.480       8.966       8.448       7.927       7.402       6.876       6.350       5.825       5.303    
        4.783       4.265       3.747       3.228       2.706       2.180       1.648       1.109      0.5632      1.1106E-02

 HEAD WILL BE SAVED ON UNIT   51 AT END OF TIME STEP 100, STRESS PERIOD    3

 DRAWDOWN WILL BE SAVED ON UNIT   52 AT END OF TIME STEP 100, STRESS PERIOD    3
1
  VOLUMETRIC BUDGET FOR ENTIRE MODEL AT END OF TIME STEP100 IN STRESS PERIOD   3
  ------------------------------------------------------------------------------

     CUMULATIVE VOLUMES      L**3       RATES FOR THIS TIME STEP      L**3/T
     ------------------                 ------------------------

           IN:                                      IN:
           ---                                      ---
             STORAGE =       44348.5625               STORAGE =         348.4930
       CONSTANT HEAD =           0.0000         CONSTANT HEAD =           0.0000
               WELLS =           0.0000                 WELLS =           0.0000
     HEAD DEP BOUNDS =      119615.5312       HEAD DEP BOUNDS =         666.8756

            TOTAL IN =      163964.0938              TOTAL IN =        1015.3687

          OUT:                                     OUT:
          ----                                     ----
             STORAGE =           0.1866               STORAGE =           0.0000
       CONSTANT HEAD =           0.0000         CONSTANT HEAD =           0.0000
               WELLS =       50000.0000                 WELLS =         500.0000
     HEAD DEP BOUNDS =      113965.7422       HEAD DEP BOUNDS =         515.3646

           TOTAL OUT =      163965.9375             TOTAL OUT =        1015.3646

            IN - OUT =          -1.8438              IN - OUT =       4.0894E-03

 PERCENT DISCREPANCY =           0.00     PERCENT DISCREPANCY =           0.00






          TIME SUMMARY AT END OF TIME STEP 100 IN STRESS PERIOD    3
                    SECONDS     MINUTES      HOURS       DAYS        YEARS
                    -----------------------------------------------------------
   TIME STEP LENGTH  86400.      1440.0      24.000      1.0000     2.73785E-03
 STRESS PERIOD TIME 8.64000E+06 1.44000E+05  2400.0      100.00     0.27379    
         TOTAL TIME 1.73664E+07 2.89440E+05  4824.0      201.00     0.55031    
1

 Run end date and time (yyyy/mm/dd hh:mm:ss): 2025/04/20  6:41:41
 Elapsed run time:  0.254 Seconds

