                                  MODFLOW-2005     
      U.S. GEOLOGICAL SURVEY MODULAR FINITE-DIFFERENCE GROUND-WATER FLOW MODEL
                       VERSION 1.6.01 3/4/2009, with FMP2

 LIST FILE: p07_mf.list
                         UNIT    2

 OPENING p07_mf.dis
 FILE TYPE:DIS   UNIT   11   STATUS:OLD    
 FORMAT:FORMATTED              ACCESS:SEQUENTIAL          

 OPENING p07_mf.bas
 FILE TYPE:BAS6   UNIT   13   STATUS:OLD    
 FORMAT:FORMATTED              ACCESS:SEQUENTIAL          

 OPENING p07_mf.lpf
 FILE TYPE:LPF   UNIT   15   STATUS:OLD    
 FORMAT:FORMATTED              ACCESS:SEQUENTIAL          

 OPENING p07_mf.wel
 FILE TYPE:WEL   UNIT   20   STATUS:OLD    
 FORMAT:FORMATTED              ACCESS:SEQUENTIAL          

 OPENING p07_mf.pcg
 FILE TYPE:PCG   UNIT   27   STATUS:OLD    
 FORMAT:FORMATTED              ACCESS:SEQUENTIAL          

 OPENING p07_mf.lmt6
 FILE TYPE:LMT6   UNIT   30   STATUS:OLD    
 FORMAT:FORMATTED              ACCESS:SEQUENTIAL          

 BAS -- BASIC PACKAGE, VERSION 7, 5/2/2005 INPUT READ FROM UNIT   13

 DISCRETIZATION INPUT DATA READ FROM UNIT   11
 # DIS package for MODFLOW-2005 generated by Flopy 3.9.1
    8 LAYERS        15 ROWS        21 COLUMNS
    1 STRESS PERIOD(S) IN SIMULATION
 MODEL TIME UNIT IS DAYS
 MODEL LENGTH UNIT IS METERS
  Confining bed flag for each layer:
   0   0   0   0   0   0   0   0

                     DELR =   10.0000    

                     DELC =   10.0000    

 TOP ELEVATION OF LAYER 1 =   0.00000    

   MODEL LAYER BOTTOM EL. =  -10.0000     FOR LAYER   1

   MODEL LAYER BOTTOM EL. =  -20.0000     FOR LAYER   2

   MODEL LAYER BOTTOM EL. =  -30.0000     FOR LAYER   3

   MODEL LAYER BOTTOM EL. =  -40.0000     FOR LAYER   4

   MODEL LAYER BOTTOM EL. =  -50.0000     FOR LAYER   5

   MODEL LAYER BOTTOM EL. =  -60.0000     FOR LAYER   6

   MODEL LAYER BOTTOM EL. =  -70.0000     FOR LAYER   7

   MODEL LAYER BOTTOM EL. =  -80.0000     FOR LAYER   8


 STRESS PERIOD     LENGTH       TIME STEPS     MULTIPLIER FOR DELT    SS FLAG
 ----------------------------------------------------------------------------
        1         100.0000          1                    1.000         SS

 STEADY-STATE SIMULATION



 
 # BAS6 package for MODFLOW-2005 generated by Flopy 3.9.1                        
 THE FREE FORMAT OPTION HAS BEEN SELECTED



                     BOUNDARY ARRAY FOR LAYER   1
 READING ON UNIT   13 WITH FORMAT: (21I10)             



                     BOUNDARY ARRAY FOR LAYER   2
 READING ON UNIT   13 WITH FORMAT: (21I10)             



                     BOUNDARY ARRAY FOR LAYER   3
 READING ON UNIT   13 WITH FORMAT: (21I10)             



                     BOUNDARY ARRAY FOR LAYER   4
 READING ON UNIT   13 WITH FORMAT: (21I10)             



                     BOUNDARY ARRAY FOR LAYER   5
 READING ON UNIT   13 WITH FORMAT: (21I10)             



                     BOUNDARY ARRAY FOR LAYER   6
 READING ON UNIT   13 WITH FORMAT: (21I10)             



                     BOUNDARY ARRAY FOR LAYER   7
 READING ON UNIT   13 WITH FORMAT: (21I10)             



                     BOUNDARY ARRAY FOR LAYER   8
 READING ON UNIT   13 WITH FORMAT: (21I10)             

 AQUIFER HEAD WILL BE SET TO  -999.99     AT ALL NO-FLOW NODES (IBOUND=0).



                       INITIAL HEAD FOR LAYER   1
 READING ON UNIT   13 WITH FORMAT: (21E15.6)           



                       INITIAL HEAD FOR LAYER   2
 READING ON UNIT   13 WITH FORMAT: (21E15.6)           



                       INITIAL HEAD FOR LAYER   3
 READING ON UNIT   13 WITH FORMAT: (21E15.6)           



                       INITIAL HEAD FOR LAYER   4
 READING ON UNIT   13 WITH FORMAT: (21E15.6)           



                       INITIAL HEAD FOR LAYER   5
 READING ON UNIT   13 WITH FORMAT: (21E15.6)           



                       INITIAL HEAD FOR LAYER   6
 READING ON UNIT   13 WITH FORMAT: (21E15.6)           



                       INITIAL HEAD FOR LAYER   7
 READING ON UNIT   13 WITH FORMAT: (21E15.6)           



                       INITIAL HEAD FOR LAYER   8
 READING ON UNIT   13 WITH FORMAT: (21E15.6)           

 DEFAULT OUTPUT CONTROL
 THE FOLLOWING OUTPUT COMES AT THE END OF EACH STRESS PERIOD:
 TOTAL VOLUMETRIC BUDGET
           HEAD

 LPF -- LAYER-PROPERTY FLOW PACKAGE, VERSION 7, 5/2/2005
         INPUT READ FROM UNIT   15
 # LPF package for MODFLOW-2005 generated by Flopy 3.9.1
 HEAD AT CELLS THAT CONVERT TO DRY= -1.00000E+30
 No named parameters

   LAYER FLAGS:
 LAYER       LAYTYP        LAYAVG         CHANI        LAYVKA        LAYWET
 ---------------------------------------------------------------------------
    1             0             0     1.000E+00             0             0
    2             0             0     1.000E+00             0             0
    3             0             0     1.000E+00             0             0
    4             0             0     1.000E+00             0             0
    5             0             0     1.000E+00             0             0
    6             0             0     1.000E+00             0             0
    7             0             0     1.000E+00             0             0
    8             0             0     1.000E+00             0             0

   INTERPRETATION OF LAYER FLAGS:
                        INTERBLOCK     HORIZONTAL    DATA IN
         LAYER TYPE   TRANSMISSIVITY   ANISOTROPY   ARRAY VKA   WETTABILITY
 LAYER      (LAYTYP)      (LAYAVG)       (CHANI)      (LAYVKA)      (LAYWET)
 ---------------------------------------------------------------------------
    1      CONFINED      HARMONIC     1.000E+00    VERTICAL K  NON-WETTABLE
    2      CONFINED      HARMONIC     1.000E+00    VERTICAL K  NON-WETTABLE
    3      CONFINED      HARMONIC     1.000E+00    VERTICAL K  NON-WETTABLE
    4      CONFINED      HARMONIC     1.000E+00    VERTICAL K  NON-WETTABLE
    5      CONFINED      HARMONIC     1.000E+00    VERTICAL K  NON-WETTABLE
    6      CONFINED      HARMONIC     1.000E+00    VERTICAL K  NON-WETTABLE
    7      CONFINED      HARMONIC     1.000E+00    VERTICAL K  NON-WETTABLE
    8      CONFINED      HARMONIC     1.000E+00    VERTICAL K  NON-WETTABLE

 WETTING CAPABILITY IS NOT ACTIVE IN ANY LAYER

    HYD. COND. ALONG ROWS =  0.500000     FOR LAYER   1

      VERTICAL HYD. COND. =   1.00000     FOR LAYER   1

    HYD. COND. ALONG ROWS =  0.500000     FOR LAYER   2

      VERTICAL HYD. COND. =   1.00000     FOR LAYER   2

    HYD. COND. ALONG ROWS =  0.500000     FOR LAYER   3

      VERTICAL HYD. COND. =   1.00000     FOR LAYER   3

    HYD. COND. ALONG ROWS =  0.500000     FOR LAYER   4

      VERTICAL HYD. COND. =   1.00000     FOR LAYER   4

    HYD. COND. ALONG ROWS =  0.500000     FOR LAYER   5

      VERTICAL HYD. COND. =   1.00000     FOR LAYER   5

    HYD. COND. ALONG ROWS =  0.500000     FOR LAYER   6

      VERTICAL HYD. COND. =   1.00000     FOR LAYER   6

    HYD. COND. ALONG ROWS =  0.500000     FOR LAYER   7

      VERTICAL HYD. COND. =   1.00000     FOR LAYER   7

    HYD. COND. ALONG ROWS =  0.500000     FOR LAYER   8

      VERTICAL HYD. COND. =   1.00000     FOR LAYER   8

 WEL -- WELL PACKAGE, VERSION 7, 5/2/2005 INPUT READ FROM UNIT   20
 # WEL package for MODFLOW-2005 generated by Flopy 3.9.1
 No named parameters
 MAXIMUM OF      1 ACTIVE WELLS AT ONE TIME


     0 Well parameters

 PCG -- CONJUGATE-GRADIENT SOLUTION PACKAGE, VERSION 7, 5/2/2005
 # PCG package for MODFLOW-2005 generated by Flopy 3.9.1
 MAXIMUM OF     50 CALLS OF SOLUTION ROUTINE
 MAXIMUM OF     30 INTERNAL ITERATIONS PER CALL TO SOLUTION ROUTINE
 MATRIX PRECONDITIONING TYPE :    1



                                    SOLUTION BY THE CONJUGATE-GRADIENT METHOD
                                   -------------------------------------------
                    MAXIMUM NUMBER OF CALLS TO PCG ROUTINE =       50
                        MAXIMUM ITERATIONS PER CALL TO PCG =       30
                               MATRIX PRECONDITIONING TYPE =        1
        RELAXATION FACTOR (ONLY USED WITH PRECOND. TYPE 1) =    0.10000E+01
 PARAMETER OF POLYNOMIAL PRECOND. = 2 (2) OR IS CALCULATED :        0
                         HEAD CHANGE CRITERION FOR CLOSURE =    0.10000E-04
                     RESIDUAL CHANGE CRITERION FOR CLOSURE =    0.10000E-04
            PCG HEAD AND RESIDUAL CHANGE PRINTOUT INTERVAL =      999
     PRINTING FROM SOLVER IS LIMITED(1) OR SUPPRESSED (>1) =        3
                            STEADY-STATE DAMPING PARAMETER =    0.10000E+01
                               TRANSIENT DAMPING PARAMETER =    0.10000E+01
1
                            STRESS PERIOD NO.    1, LENGTH =   100.0000    
                            -----------------------------------------------

                              NUMBER OF TIME STEPS =     1

                               MULTIPLIER FOR DELT =     1.000

                            INITIAL TIME STEP SIZE =   100.0000    

 WELL NO.  LAYER   ROW   COL   STRESS RATE         
 --------------------------------------------------
      1      7      8      3      0.5000    

      1 WELL 
 
 SOLVING FOR HEAD 


 ***Link-MT3DMS Package v7***
 OPENING LINK-MT3DMS OUTPUT FILE: mt3d_link.ftl                                                                                                                                                                                           
 ON UNIT NUMBER:    54
 FILE TYPE: UNFORMATTED
 HEADER OPTION: EXTENDED
 ***Link-MT3DMS Package v7***


 SAVING SATURATED THICKNESS AND FLOW TERMS ON UNIT   54 FOR MT3DMS
 BY THE LINK-MT3DMS PACKAGE V7 AT TIME STEP    1, STRESS PERIOD    1

1
              HEAD IN LAYER   1 AT END OF TIME STEP   1 IN STRESS PERIOD    1
  ---------------------------------------------------------------------------

            1           2           3           4           5           6           7           8           9          10
           11          12          13          14          15          16          17          18          19          20
           21
 ........................................................................................................................
   1    13.33       12.67       12.00       11.33       10.67       10.00       9.334       8.668       8.001       7.334    
        6.667       6.001       5.334       4.667       4.000       3.334       2.667       2.000       1.333      0.6667    
        0.000    
   2    13.33       12.67       12.00       11.33       10.67       10.00       9.334       8.668       8.001       7.334    
        6.667       6.001       5.334       4.667       4.000       3.334       2.667       2.000       1.333      0.6667    
        0.000    
   3    13.33       12.67       12.00       11.33       10.67       10.00       9.334       8.668       8.001       7.334    
        6.667       6.001       5.334       4.667       4.000       3.334       2.667       2.000       1.333      0.6667    
        0.000    
   4    13.33       12.67       12.00       11.33       10.67       10.00       9.334       8.668       8.001       7.334    
        6.667       6.001       5.334       4.667       4.000       3.334       2.667       2.000       1.333      0.6667    
        0.000    
   5    13.33       12.67       12.00       11.33       10.67       10.00       9.334       8.668       8.001       7.334    
        6.668       6.001       5.334       4.667       4.001       3.334       2.667       2.000       1.334      0.6668    
        0.000    
   6    13.33       12.67       12.00       11.33       10.67       10.00       9.335       8.668       8.001       7.334    
        6.668       6.001       5.334       4.667       4.001       3.334       2.667       2.000       1.334      0.6668    
        0.000    
   7    13.33       12.67       12.00       11.33       10.67       10.00       9.335       8.668       8.001       7.334    
        6.668       6.001       5.334       4.667       4.001       3.334       2.667       2.000       1.334      0.6668    
        0.000    
   8    13.33       12.67       12.00       11.33       10.67       10.00       9.335       8.668       8.001       7.334    
        6.668       6.001       5.334       4.667       4.001       3.334       2.667       2.000       1.334      0.6668    
        0.000    
   9    13.33       12.67       12.00       11.33       10.67       10.00       9.335       8.668       8.001       7.334    
        6.668       6.001       5.334       4.667       4.001       3.334       2.667       2.000       1.334      0.6668    
        0.000    
  10    13.33       12.67       12.00       11.33       10.67       10.00       9.335       8.668       8.001       7.334    
        6.668       6.001       5.334       4.667       4.001       3.334       2.667       2.000       1.334      0.6668    
        0.000    
  11    13.33       12.67       12.00       11.33       10.67       10.00       9.334       8.668       8.001       7.334    
        6.668       6.001       5.334       4.667       4.001       3.334       2.667       2.000       1.334      0.6667    
        0.000    
  12    13.33       12.67       12.00       11.33       10.67       10.00       9.334       8.668       8.001       7.334    
        6.667       6.001       5.334       4.667       4.000       3.334       2.667       2.000       1.333      0.6667    
        0.000    
  13    13.33       12.67       12.00       11.33       10.67       10.00       9.334       8.668       8.001       7.334    
        6.667       6.001       5.334       4.667       4.000       3.334       2.667       2.000       1.333      0.6667    
        0.000    
  14    13.33       12.67       12.00       11.33       10.67       10.00       9.334       8.668       8.001       7.334    
        6.667       6.001       5.334       4.667       4.000       3.334       2.667       2.000       1.333      0.6667    
        0.000    
  15    13.33       12.67       12.00       11.33       10.67       10.00       9.334       8.668       8.001       7.334    
        6.667       6.001       5.334       4.667       4.000       3.334       2.667       2.000       1.333      0.6667    
        0.000    
1
              HEAD IN LAYER   2 AT END OF TIME STEP   1 IN STRESS PERIOD    1
  ---------------------------------------------------------------------------

            1           2           3           4           5           6           7           8           9          10
           11          12          13          14          15          16          17          18          19          20
           21
 ........................................................................................................................
   1    13.33       12.67       12.00       11.33       10.67       10.00       9.334       8.668       8.001       7.334    
        6.667       6.001       5.334       4.667       4.000       3.334       2.667       2.000       1.333      0.6667    
        0.000    
   2    13.33       12.67       12.00       11.33       10.67       10.00       9.334       8.668       8.001       7.334    
        6.667       6.001       5.334       4.667       4.000       3.334       2.667       2.000       1.333      0.6667    
        0.000    
   3    13.33       12.67       12.00       11.33       10.67       10.00       9.334       8.668       8.001       7.334    
        6.667       6.001       5.334       4.667       4.000       3.334       2.667       2.000       1.333      0.6667    
        0.000    
   4    13.33       12.67       12.00       11.33       10.67       10.00       9.334       8.668       8.001       7.334    
        6.667       6.001       5.334       4.667       4.000       3.334       2.667       2.000       1.333      0.6667    
        0.000    
   5    13.33       12.67       12.00       11.33       10.67       10.00       9.334       8.668       8.001       7.334    
        6.668       6.001       5.334       4.667       4.001       3.334       2.667       2.000       1.334      0.6668    
        0.000    
   6    13.33       12.67       12.00       11.33       10.67       10.00       9.335       8.668       8.001       7.334    
        6.668       6.001       5.334       4.667       4.001       3.334       2.667       2.000       1.334      0.6668    
        0.000    
   7    13.33       12.67       12.00       11.33       10.67       10.00       9.335       8.668       8.001       7.334    
        6.668       6.001       5.334       4.667       4.001       3.334       2.667       2.000       1.334      0.6668    
        0.000    
   8    13.33       12.67       12.00       11.33       10.67       10.00       9.335       8.668       8.001       7.334    
        6.668       6.001       5.334       4.667       4.001       3.334       2.667       2.000       1.334      0.6668    
        0.000    
   9    13.33       12.67       12.00       11.33       10.67       10.00       9.335       8.668       8.001       7.334    
        6.668       6.001       5.334       4.667       4.001       3.334       2.667       2.000       1.334      0.6668    
        0.000    
  10    13.33       12.67       12.00       11.33       10.67       10.00       9.335       8.668       8.001       7.334    
        6.668       6.001       5.334       4.667       4.001       3.334       2.667       2.000       1.334      0.6668    
        0.000    
  11    13.33       12.67       12.00       11.33       10.67       10.00       9.334       8.668       8.001       7.334    
        6.668       6.001       5.334       4.667       4.001       3.334       2.667       2.000       1.334      0.6668    
        0.000    
  12    13.33       12.67       12.00       11.33       10.67       10.00       9.334       8.668       8.001       7.334    
        6.667       6.001       5.334       4.667       4.000       3.334       2.667       2.000       1.333      0.6667    
        0.000    
  13    13.33       12.67       12.00       11.33       10.67       10.00       9.334       8.668       8.001       7.334    
        6.667       6.001       5.334       4.667       4.000       3.334       2.667       2.000       1.333      0.6667    
        0.000    
  14    13.33       12.67       12.00       11.33       10.67       10.00       9.334       8.668       8.001       7.334    
        6.667       6.001       5.334       4.667       4.000       3.334       2.667       2.000       1.333      0.6667    
        0.000    
  15    13.33       12.67       12.00       11.33       10.67       10.00       9.334       8.668       8.001       7.334    
        6.667       6.001       5.334       4.667       4.000       3.334       2.667       2.000       1.333      0.6667    
        0.000    
1
              HEAD IN LAYER   3 AT END OF TIME STEP   1 IN STRESS PERIOD    1
  ---------------------------------------------------------------------------

            1           2           3           4           5           6           7           8           9          10
           11          12          13          14          15          16          17          18          19          20
           21
 ........................................................................................................................
   1    13.33       12.67       12.00       11.33       10.67       10.00       9.334       8.668       8.001       7.334    
        6.667       6.001       5.334       4.667       4.000       3.334       2.667       2.000       1.333      0.6667    
        0.000    
   2    13.33       12.67       12.00       11.33       10.67       10.00       9.334       8.668       8.001       7.334    
        6.667       6.001       5.334       4.667       4.000       3.334       2.667       2.000       1.333      0.6667    
        0.000    
   3    13.33       12.67       12.00       11.33       10.67       10.00       9.334       8.668       8.001       7.334    
        6.667       6.001       5.334       4.667       4.000       3.334       2.667       2.000       1.333      0.6667    
        0.000    
   4    13.33       12.67       12.00       11.33       10.67       10.00       9.334       8.668       8.001       7.334    
        6.667       6.001       5.334       4.667       4.000       3.334       2.667       2.000       1.333      0.6667    
        0.000    
   5    13.33       12.67       12.00       11.33       10.67       10.00       9.334       8.668       8.001       7.334    
        6.668       6.001       5.334       4.667       4.001       3.334       2.667       2.000       1.334      0.6668    
        0.000    
   6    13.33       12.67       12.00       11.33       10.67       10.00       9.335       8.668       8.001       7.334    
        6.668       6.001       5.334       4.667       4.001       3.334       2.667       2.000       1.334      0.6668    
        0.000    
   7    13.33       12.67       12.00       11.33       10.67       10.00       9.335       8.668       8.001       7.334    
        6.668       6.001       5.334       4.667       4.001       3.334       2.667       2.000       1.334      0.6668    
        0.000    
   8    13.33       12.67       12.00       11.34       10.67       10.00       9.335       8.668       8.001       7.334    
        6.668       6.001       5.334       4.667       4.001       3.334       2.667       2.000       1.334      0.6668    
        0.000    
   9    13.33       12.67       12.00       11.33       10.67       10.00       9.335       8.668       8.001       7.334    
        6.668       6.001       5.334       4.667       4.001       3.334       2.667       2.000       1.334      0.6668    
        0.000    
  10    13.33       12.67       12.00       11.33       10.67       10.00       9.335       8.668       8.001       7.334    
        6.668       6.001       5.334       4.667       4.001       3.334       2.667       2.000       1.334      0.6668    
        0.000    
  11    13.33       12.67       12.00       11.33       10.67       10.00       9.334       8.668       8.001       7.334    
        6.668       6.001       5.334       4.667       4.001       3.334       2.667       2.000       1.334      0.6668    
        0.000    
  12    13.33       12.67       12.00       11.33       10.67       10.00       9.334       8.668       8.001       7.334    
        6.667       6.001       5.334       4.667       4.000       3.334       2.667       2.000       1.333      0.6667    
        0.000    
  13    13.33       12.67       12.00       11.33       10.67       10.00       9.334       8.668       8.001       7.334    
        6.667       6.001       5.334       4.667       4.000       3.334       2.667       2.000       1.333      0.6667    
        0.000    
  14    13.33       12.67       12.00       11.33       10.67       10.00       9.334       8.668       8.001       7.334    
        6.667       6.001       5.334       4.667       4.000       3.334       2.667       2.000       1.333      0.6667    
        0.000    
  15    13.33       12.67       12.00       11.33       10.67       10.00       9.334       8.668       8.001       7.334    
        6.667       6.001       5.334       4.667       4.000       3.334       2.667       2.000       1.333      0.6667    
        0.000    
1
              HEAD IN LAYER   4 AT END OF TIME STEP   1 IN STRESS PERIOD    1
  ---------------------------------------------------------------------------

            1           2           3           4           5           6           7           8           9          10
           11          12          13          14          15          16          17          18          19          20
           21
 ........................................................................................................................
   1    13.33       12.67       12.00       11.33       10.67       10.00       9.334       8.668       8.001       7.334    
        6.667       6.001       5.334       4.667       4.000       3.334       2.667       2.000       1.333      0.6667    
        0.000    
   2    13.33       12.67       12.00       11.33       10.67       10.00       9.334       8.668       8.001       7.334    
        6.667       6.001       5.334       4.667       4.000       3.334       2.667       2.000       1.333      0.6667    
        0.000    
   3    13.33       12.67       12.00       11.33       10.67       10.00       9.334       8.668       8.001       7.334    
        6.667       6.001       5.334       4.667       4.000       3.334       2.667       2.000       1.333      0.6667    
        0.000    
   4    13.33       12.67       12.00       11.33       10.67       10.00       9.334       8.668       8.001       7.334    
        6.667       6.001       5.334       4.667       4.000       3.334       2.667       2.000       1.333      0.6667    
        0.000    
   5    13.33       12.67       12.00       11.33       10.67       10.00       9.335       8.668       8.001       7.334    
        6.668       6.001       5.334       4.667       4.001       3.334       2.667       2.000       1.334      0.6668    
        0.000    
   6    13.33       12.67       12.00       11.33       10.67       10.00       9.335       8.668       8.001       7.334    
        6.668       6.001       5.334       4.667       4.001       3.334       2.667       2.000       1.334      0.6668    
        0.000    
   7    13.33       12.67       12.00       11.34       10.67       10.00       9.335       8.668       8.001       7.334    
        6.668       6.001       5.334       4.667       4.001       3.334       2.667       2.000       1.334      0.6668    
        0.000    
   8    13.33       12.67       12.00       11.34       10.67       10.00       9.335       8.668       8.001       7.334    
        6.668       6.001       5.334       4.667       4.001       3.334       2.667       2.000       1.334      0.6668    
        0.000    
   9    13.33       12.67       12.00       11.34       10.67       10.00       9.335       8.668       8.001       7.334    
        6.668       6.001       5.334       4.667       4.001       3.334       2.667       2.000       1.334      0.6668    
        0.000    
  10    13.33       12.67       12.00       11.33       10.67       10.00       9.335       8.668       8.001       7.334    
        6.668       6.001       5.334       4.667       4.001       3.334       2.667       2.000       1.334      0.6668    
        0.000    
  11    13.33       12.67       12.00       11.33       10.67       10.00       9.335       8.668       8.001       7.334    
        6.668       6.001       5.334       4.667       4.001       3.334       2.667       2.000       1.334      0.6668    
        0.000    
  12    13.33       12.67       12.00       11.33       10.67       10.00       9.334       8.668       8.001       7.334    
        6.667       6.001       5.334       4.667       4.000       3.334       2.667       2.000       1.333      0.6667    
        0.000    
  13    13.33       12.67       12.00       11.33       10.67       10.00       9.334       8.668       8.001       7.334    
        6.667       6.001       5.334       4.667       4.000       3.334       2.667       2.000       1.333      0.6667    
        0.000    
  14    13.33       12.67       12.00       11.33       10.67       10.00       9.334       8.668       8.001       7.334    
        6.667       6.001       5.334       4.667       4.000       3.334       2.667       2.000       1.333      0.6667    
        0.000    
  15    13.33       12.67       12.00       11.33       10.67       10.00       9.334       8.668       8.001       7.334    
        6.667       6.001       5.334       4.667       4.000       3.334       2.667       2.000       1.333      0.6667    
        0.000    
1
              HEAD IN LAYER   5 AT END OF TIME STEP   1 IN STRESS PERIOD    1
  ---------------------------------------------------------------------------

            1           2           3           4           5           6           7           8           9          10
           11          12          13          14          15          16          17          18          19          20
           21
 ........................................................................................................................
   1    13.33       12.67       12.00       11.33       10.67       10.00       9.334       8.668       8.001       7.334    
        6.667       6.001       5.334       4.667       4.000       3.334       2.667       2.000       1.333      0.6667    
        0.000    
   2    13.33       12.67       12.00       11.33       10.67       10.00       9.334       8.668       8.001       7.334    
        6.667       6.001       5.334       4.667       4.000       3.334       2.667       2.000       1.333      0.6667    
        0.000    
   3    13.33       12.67       12.00       11.33       10.67       10.00       9.334       8.668       8.001       7.334    
        6.667       6.001       5.334       4.667       4.000       3.334       2.667       2.000       1.333      0.6667    
        0.000    
   4    13.33       12.67       12.00       11.33       10.67       10.00       9.334       8.668       8.001       7.334    
        6.667       6.001       5.334       4.667       4.000       3.334       2.667       2.000       1.333      0.6667    
        0.000    
   5    13.33       12.67       12.00       11.33       10.67       10.00       9.335       8.668       8.001       7.334    
        6.668       6.001       5.334       4.667       4.001       3.334       2.667       2.000       1.334      0.6668    
        0.000    
   6    13.33       12.67       12.00       11.34       10.67       10.00       9.335       8.668       8.001       7.334    
        6.668       6.001       5.334       4.667       4.001       3.334       2.667       2.000       1.334      0.6668    
        0.000    
   7    13.33       12.67       12.00       11.34       10.67       10.00       9.335       8.668       8.001       7.334    
        6.668       6.001       5.334       4.667       4.001       3.334       2.667       2.000       1.334      0.6668    
        0.000    
   8    13.33       12.67       12.00       11.34       10.67       10.00       9.335       8.668       8.001       7.334    
        6.668       6.001       5.334       4.667       4.001       3.334       2.667       2.000       1.334      0.6668    
        0.000    
   9    13.33       12.67       12.00       11.34       10.67       10.00       9.335       8.668       8.001       7.334    
        6.668       6.001       5.334       4.667       4.001       3.334       2.667       2.000       1.334      0.6668    
        0.000    
  10    13.33       12.67       12.00       11.34       10.67       10.00       9.335       8.668       8.001       7.334    
        6.668       6.001       5.334       4.667       4.001       3.334       2.667       2.000       1.334      0.6668    
        0.000    
  11    13.33       12.67       12.00       11.33       10.67       10.00       9.335       8.668       8.001       7.334    
        6.668       6.001       5.334       4.667       4.001       3.334       2.667       2.000       1.334      0.6668    
        0.000    
  12    13.33       12.67       12.00       11.33       10.67       10.00       9.334       8.668       8.001       7.334    
        6.667       6.001       5.334       4.667       4.000       3.334       2.667       2.000       1.333      0.6667    
        0.000    
  13    13.33       12.67       12.00       11.33       10.67       10.00       9.334       8.668       8.001       7.334    
        6.667       6.001       5.334       4.667       4.000       3.334       2.667       2.000       1.333      0.6667    
        0.000    
  14    13.33       12.67       12.00       11.33       10.67       10.00       9.334       8.668       8.001       7.334    
        6.667       6.001       5.334       4.667       4.000       3.334       2.667       2.000       1.333      0.6667    
        0.000    
  15    13.33       12.67       12.00       11.33       10.67       10.00       9.334       8.668       8.001       7.334    
        6.667       6.001       5.334       4.667       4.000       3.334       2.667       2.000       1.333      0.6667    
        0.000    
1
              HEAD IN LAYER   6 AT END OF TIME STEP   1 IN STRESS PERIOD    1
  ---------------------------------------------------------------------------

            1           2           3           4           5           6           7           8           9          10
           11          12          13          14          15          16          17          18          19          20
           21
 ........................................................................................................................
   1    13.33       12.67       12.00       11.33       10.67       10.00       9.334       8.668       8.001       7.334    
        6.667       6.001       5.334       4.667       4.000       3.334       2.667       2.000       1.333      0.6667    
        0.000    
   2    13.33       12.67       12.00       11.33       10.67       10.00       9.334       8.668       8.001       7.334    
        6.667       6.001       5.334       4.667       4.000       3.334       2.667       2.000       1.333      0.6667    
        0.000    
   3    13.33       12.67       12.00       11.33       10.67       10.00       9.334       8.668       8.001       7.334    
        6.667       6.001       5.334       4.667       4.000       3.334       2.667       2.000       1.333      0.6667    
        0.000    
   4    13.33       12.67       12.00       11.33       10.67       10.00       9.334       8.668       8.001       7.334    
        6.667       6.001       5.334       4.667       4.000       3.334       2.667       2.000       1.333      0.6667    
        0.000    
   5    13.33       12.67       12.00       11.33       10.67       10.00       9.335       8.668       8.001       7.334    
        6.668       6.001       5.334       4.667       4.001       3.334       2.667       2.000       1.334      0.6668    
        0.000    
   6    13.33       12.67       12.00       11.34       10.67       10.00       9.335       8.668       8.001       7.334    
        6.668       6.001       5.334       4.667       4.001       3.334       2.667       2.000       1.334      0.6668    
        0.000    
   7    13.33       12.67       12.00       11.34       10.67       10.00       9.335       8.668       8.001       7.334    
        6.668       6.001       5.334       4.667       4.001       3.334       2.667       2.000       1.334      0.6668    
        0.000    
   8    13.33       12.67       12.01       11.34       10.67       10.00       9.335       8.668       8.001       7.334    
        6.668       6.001       5.334       4.667       4.001       3.334       2.667       2.000       1.334      0.6668    
        0.000    
   9    13.33       12.67       12.00       11.34       10.67       10.00       9.335       8.668       8.001       7.334    
        6.668       6.001       5.334       4.667       4.001       3.334       2.667       2.000       1.334      0.6668    
        0.000    
  10    13.33       12.67       12.00       11.34       10.67       10.00       9.335       8.668       8.001       7.334    
        6.668       6.001       5.334       4.667       4.001       3.334       2.667       2.000       1.334      0.6668    
        0.000    
  11    13.33       12.67       12.00       11.33       10.67       10.00       9.335       8.668       8.001       7.334    
        6.668       6.001       5.334       4.667       4.001       3.334       2.667       2.000       1.334      0.6668    
        0.000    
  12    13.33       12.67       12.00       11.33       10.67       10.00       9.334       8.668       8.001       7.334    
        6.667       6.001       5.334       4.667       4.000       3.334       2.667       2.000       1.333      0.6667    
        0.000    
  13    13.33       12.67       12.00       11.33       10.67       10.00       9.334       8.668       8.001       7.334    
        6.667       6.001       5.334       4.667       4.000       3.334       2.667       2.000       1.333      0.6667    
        0.000    
  14    13.33       12.67       12.00       11.33       10.67       10.00       9.334       8.668       8.001       7.334    
        6.667       6.001       5.334       4.667       4.000       3.334       2.667       2.000       1.333      0.6667    
        0.000    
  15    13.33       12.67       12.00       11.33       10.67       10.00       9.334       8.668       8.001       7.334    
        6.667       6.001       5.334       4.667       4.000       3.334       2.667       2.000       1.333      0.6667    
        0.000    
1
              HEAD IN LAYER   7 AT END OF TIME STEP   1 IN STRESS PERIOD    1
  ---------------------------------------------------------------------------

            1           2           3           4           5           6           7           8           9          10
           11          12          13          14          15          16          17          18          19          20
           21
 ........................................................................................................................
   1    13.33       12.67       12.00       11.33       10.67       10.00       9.334       8.668       8.001       7.334    
        6.667       6.001       5.334       4.667       4.000       3.334       2.667       2.000       1.333      0.6667    
        0.000    
   2    13.33       12.67       12.00       11.33       10.67       10.00       9.334       8.668       8.001       7.334    
        6.667       6.001       5.334       4.667       4.000       3.334       2.667       2.000       1.333      0.6667    
        0.000    
   3    13.33       12.67       12.00       11.33       10.67       10.00       9.334       8.668       8.001       7.334    
        6.667       6.001       5.334       4.667       4.000       3.334       2.667       2.000       1.333      0.6667    
        0.000    
   4    13.33       12.67       12.00       11.33       10.67       10.00       9.335       8.668       8.001       7.334    
        6.668       6.001       5.334       4.667       4.000       3.334       2.667       2.000       1.333      0.6667    
        0.000    
   5    13.33       12.67       12.00       11.34       10.67       10.00       9.335       8.668       8.001       7.334    
        6.668       6.001       5.334       4.667       4.001       3.334       2.667       2.000       1.334      0.6668    
        0.000    
   6    13.33       12.67       12.00       11.34       10.67       10.00       9.335       8.668       8.001       7.334    
        6.668       6.001       5.334       4.667       4.001       3.334       2.667       2.000       1.334      0.6668    
        0.000    
   7    13.33       12.67       12.01       11.34       10.67       10.00       9.335       8.668       8.001       7.334    
        6.668       6.001       5.334       4.667       4.001       3.334       2.667       2.000       1.334      0.6668    
        0.000    
   8    13.33       12.67       12.02       11.34       10.67       10.00       9.335       8.668       8.001       7.334    
        6.668       6.001       5.334       4.667       4.001       3.334       2.667       2.000       1.334      0.6668    
        0.000    
   9    13.33       12.67       12.01       11.34       10.67       10.00       9.335       8.668       8.001       7.334    
        6.668       6.001       5.334       4.667       4.001       3.334       2.667       2.000       1.334      0.6668    
        0.000    
  10    13.33       12.67       12.00       11.34       10.67       10.00       9.335       8.668       8.001       7.334    
        6.668       6.001       5.334       4.667       4.001       3.334       2.667       2.000       1.334      0.6668    
        0.000    
  11    13.33       12.67       12.00       11.34       10.67       10.00       9.335       8.668       8.001       7.334    
        6.668       6.001       5.334       4.667       4.001       3.334       2.667       2.000       1.334      0.6668    
        0.000    
  12    13.33       12.67       12.00       11.33       10.67       10.00       9.335       8.668       8.001       7.334    
        6.668       6.001       5.334       4.667       4.000       3.334       2.667       2.000       1.333      0.6667    
        0.000    
  13    13.33       12.67       12.00       11.33       10.67       10.00       9.334       8.668       8.001       7.334    
        6.667       6.001       5.334       4.667       4.000       3.334       2.667       2.000       1.333      0.6667    
        0.000    
  14    13.33       12.67       12.00       11.33       10.67       10.00       9.334       8.668       8.001       7.334    
        6.667       6.001       5.334       4.667       4.000       3.334       2.667       2.000       1.333      0.6667    
        0.000    
  15    13.33       12.67       12.00       11.33       10.67       10.00       9.334       8.668       8.001       7.334    
        6.667       6.001       5.334       4.667       4.000       3.334       2.667       2.000       1.333      0.6667    
        0.000    
1
              HEAD IN LAYER   8 AT END OF TIME STEP   1 IN STRESS PERIOD    1
  ---------------------------------------------------------------------------

            1           2           3           4           5           6           7           8           9          10
           11          12          13          14          15          16          17          18          19          20
           21
 ........................................................................................................................
   1    13.33       12.67       12.00       11.33       10.67       10.00       9.334       8.668       8.001       7.334    
        6.667       6.001       5.334       4.667       4.000       3.334       2.667       2.000       1.333      0.6667    
        0.000    
   2    13.33       12.67       12.00       11.33       10.67       10.00       9.334       8.668       8.001       7.334    
        6.667       6.001       5.334       4.667       4.000       3.334       2.667       2.000       1.333      0.6667    
        0.000    
   3    13.33       12.67       12.00       11.33       10.67       10.00       9.334       8.668       8.001       7.334    
        6.667       6.001       5.334       4.667       4.000       3.334       2.667       2.000       1.333      0.6667    
        0.000    
   4    13.33       12.67       12.00       11.33       10.67       10.00       9.335       8.668       8.001       7.334    
        6.668       6.001       5.334       4.667       4.000       3.334       2.667       2.000       1.333      0.6667    
        0.000    
   5    13.33       12.67       12.00       11.34       10.67       10.00       9.335       8.668       8.001       7.334    
        6.668       6.001       5.334       4.667       4.001       3.334       2.667       2.000       1.334      0.6668    
        0.000    
   6    13.33       12.67       12.00       11.34       10.67       10.00       9.335       8.668       8.001       7.334    
        6.668       6.001       5.334       4.667       4.001       3.334       2.667       2.000       1.334      0.6668    
        0.000    
   7    13.33       12.67       12.01       11.34       10.67       10.00       9.335       8.668       8.001       7.334    
        6.668       6.001       5.334       4.667       4.001       3.334       2.667       2.000       1.334      0.6668    
        0.000    
   8    13.33       12.67       12.01       11.34       10.67       10.00       9.335       8.668       8.001       7.334    
        6.668       6.001       5.334       4.667       4.001       3.334       2.667       2.000       1.334      0.6668    
        0.000    
   9    13.33       12.67       12.01       11.34       10.67       10.00       9.335       8.668       8.001       7.334    
        6.668       6.001       5.334       4.667       4.001       3.334       2.667       2.000       1.334      0.6668    
        0.000    
  10    13.33       12.67       12.00       11.34       10.67       10.00       9.335       8.668       8.001       7.334    
        6.668       6.001       5.334       4.667       4.001       3.334       2.667       2.000       1.334      0.6668    
        0.000    
  11    13.33       12.67       12.00       11.34       10.67       10.00       9.335       8.668       8.001       7.334    
        6.668       6.001       5.334       4.667       4.001       3.334       2.667       2.000       1.334      0.6668    
        0.000    
  12    13.33       12.67       12.00       11.33       10.67       10.00       9.335       8.668       8.001       7.334    
        6.668       6.001       5.334       4.667       4.000       3.334       2.667       2.000       1.333      0.6667    
        0.000    
  13    13.33       12.67       12.00       11.33       10.67       10.00       9.334       8.668       8.001       7.334    
        6.667       6.001       5.334       4.667       4.000       3.334       2.667       2.000       1.333      0.6667    
        0.000    
  14    13.33       12.67       12.00       11.33       10.67       10.00       9.334       8.668       8.001       7.334    
        6.667       6.001       5.334       4.667       4.000       3.334       2.667       2.000       1.333      0.6667    
        0.000    
  15    13.33       12.67       12.00       11.33       10.67       10.00       9.334       8.668       8.001       7.334    
        6.667       6.001       5.334       4.667       4.000       3.334       2.667       2.000       1.333      0.6667    
        0.000    
1
  VOLUMETRIC BUDGET FOR ENTIRE MODEL AT END OF TIME STEP  1 IN STRESS PERIOD   1
  ------------------------------------------------------------------------------

     CUMULATIVE VOLUMES      L**3       RATES FOR THIS TIME STEP      L**3/T
     ------------------                 ------------------------

           IN:                                      IN:
           ---                                      ---
             STORAGE =           0.0000               STORAGE =           0.0000
       CONSTANT HEAD =       39954.9922         CONSTANT HEAD =         399.5499
               WELLS =          50.0000                 WELLS =           0.5000

            TOTAL IN =       40004.9922              TOTAL IN =         400.0499

          OUT:                                     OUT:
          ----                                     ----
             STORAGE =           0.0000               STORAGE =           0.0000
       CONSTANT HEAD =       40004.9883         CONSTANT HEAD =         400.0499
               WELLS =           0.0000                 WELLS =           0.0000

           TOTAL OUT =       40004.9883             TOTAL OUT =         400.0499

            IN - OUT =       3.9062E-03              IN - OUT =       3.0518E-05

 PERCENT DISCREPANCY =           0.00     PERCENT DISCREPANCY =           0.00






          TIME SUMMARY AT END OF TIME STEP   1 IN STRESS PERIOD    1
                    SECONDS     MINUTES      HOURS       DAYS        YEARS
                    -----------------------------------------------------------
   TIME STEP LENGTH 8.64000E+06 1.44000E+05  2400.0      100.00     0.27379    
 STRESS PERIOD TIME 8.64000E+06 1.44000E+05  2400.0      100.00     0.27379    
         TOTAL TIME 8.64000E+06 1.44000E+05  2400.0      100.00     0.27379    
1

 Run end date and time (yyyy/mm/dd hh:mm:ss): 2025/02/26  8:44:41
 Elapsed run time:  0.038 Seconds

