                                   MODFLOW 6
                U.S. GEOLOGICAL SURVEY MODULAR HYDROLOGIC MODEL
                            VERSION 6.6.1 02/10/2025

   MODFLOW 6 compiled Feb 14 2025 13:40:10 with Intel(R) Fortran Intel(R) 64
   Compiler Classic for applications running on Intel(R) 64, Version 2021.7.0
                             Build 20220726_000000

This software has been approved for release by the U.S. Geological 
Survey (USGS). Although the software has been subjected to rigorous 
review, the USGS reserves the right to update the software as needed 
pursuant to further analysis and review. No warranty, expressed or 
implied, is made by the USGS or the U.S. Government as to the 
functionality of the software and related material nor shall the 
fact of release constitute any such warranty. Furthermore, the 
software is released on condition that neither the USGS nor the U.S. 
Government shall be held liable for any damages resulting from its 
authorized or unauthorized use. Also refer to the USGS Water 
Resources Software User Rights Notice for complete use, copyright, 
and distribution information.


As a work of the United States Government, this USGS product is 
in the public domain within the United States. You can copy, 
modify, distribute, and perform the work, even for commercial 
purposes, all without asking permission. Additionally, USGS 
waives copyright and related rights in the work worldwide 
through CC0 1.0 Universal Public Domain Dedication 
(https://creativecommons.org/publicdomain/zero/1.0/).

The following GNU Lesser General Public License (LGPL) libraries
are used in this USGS product:

    SPARSKIT version 2.0
      ilut, luson, and qsplit 
      (https://www-users.cse.umn.edu/~saad/software/SPARSKIT/)

    RCM - Reverse Cuthill McKee Ordering
      (https://people.math.sc.edu/Burkardt/f_src/rcm/rcm.html)

    BLAS - Basic Linear Algebra Subprograms Level 1
      (https://people.math.sc.edu/Burkardt/f_src/blas1_d/blas1_d.html)

    SPARSEKIT - Sparse Matrix Utility Package
      amux, dperm, dvperm, rperm, and cperm
      (https://people.sc.fsu.edu/~jburkardt/f77_src/sparsekit/sparsekit.html)

The following BSD-3 License libraries are used in this USGS product:

    Modern Fortran DAG Library
      Copyright (c) 2018, Jacob Williams
      All rights reserved.
      (https://github.com/jacobwilliams/daglib)

MODFLOW 6 compiler options: /O2 /heap-arrays:0 /fpe:0 /traceback /nologo /fpp
/c /module:win64\mod_mf6\ /object:win64\obj_mf6\

System command used to initiate simulation:
C:\Users\gross.DESKTOP-AIRQM2M\anaconda3\Scripts\mf6.exe

MODFLOW was compiled using uniform precision.

Real Variables
  KIND: 8
  TINY (smallest non-zero value):    2.225074-308
  HUGE (largest value):    1.797693+308
  PRECISION: 15
  SIZE IN BITS: 64

Integer Variables
  KIND: 4
  HUGE (largest value): 2147483647
  SIZE IN BITS: 32

Long Integer Variables
  KIND: 8
  HUGE (largest value): 9223372036854775807
  SIZE IN BITS: 64

Logical Variables
  KIND: 4
  SIZE IN BITS: 32
 

 OPENED mfsim.nam
 FILE TYPE:NAM6               UNIT 1001   STATUS:OLD                 
 FORMAT:FORMATTED              ACCESS:SEQUENTIAL          
 ACTION:READ                

 # File generated by Flopy version 3.9.1 on 06/14/2025 at 10:34:09.

 OPENED basin.tdis
 FILE TYPE:TDIS6              UNIT 1002   STATUS:OLD                 
 FORMAT:FORMATTED              ACCESS:SEQUENTIAL          
 ACTION:READ                

 # File generated by Flopy version 3.9.1 on 06/14/2025 at 10:34:09.

 OPENED model_1.nam
 FILE TYPE:GWF6               UNIT 1003   STATUS:OLD                 
 FORMAT:FORMATTED              ACCESS:SEQUENTIAL          
 ACTION:READ                

 # File generated by Flopy version 3.9.1 on 06/14/2025 at 10:34:09.

 OPENED model_1.dis
 FILE TYPE:DIS6               UNIT 1004   STATUS:OLD                 
 FORMAT:FORMATTED              ACCESS:SEQUENTIAL          
 ACTION:READ                

 # File generated by Flopy version 3.9.1 on 06/14/2025 at 10:34:09.

 OPENED model_1.npf
 FILE TYPE:NPF6               UNIT 1005   STATUS:OLD                 
 FORMAT:FORMATTED              ACCESS:SEQUENTIAL          
 ACTION:READ                

 # File generated by Flopy version 3.9.1 on 06/14/2025 at 10:34:09.

 OPENED model_1.sto
 FILE TYPE:STO6               UNIT 1006   STATUS:OLD                 
 FORMAT:FORMATTED              ACCESS:SEQUENTIAL          
 ACTION:READ                

 # File generated by Flopy version 3.9.1 on 06/14/2025 at 10:34:09.

 OPENED model_1.oc
 FILE TYPE:OC6       UNIT 1007   STATUS:OLD                 
 FORMAT:FORMATTED              ACCESS:SEQUENTIAL          
 ACTION:READ                


 OPENED model_1.drn
 FILE TYPE:DRN6               UNIT 1008   STATUS:OLD                 
 FORMAT:FORMATTED              ACCESS:SEQUENTIAL          
 ACTION:READ                

 # File generated by Flopy version 3.9.1 on 06/14/2025 at 10:34:09.

 OPENED model_1_0.drn
 FILE TYPE:DRN6               UNIT 1009   STATUS:OLD                 
 FORMAT:FORMATTED              ACCESS:SEQUENTIAL          
 ACTION:READ                

 # File generated by Flopy version 3.9.1 on 06/14/2025 at 10:34:09.
    AUXILIARY  VARIABLE: DEPTH           

 OPENED model_1.rcha
 FILE TYPE:RCH6               UNIT 1011   STATUS:OLD                 
 FORMAT:FORMATTED              ACCESS:SEQUENTIAL          
 ACTION:READ                

 # File generated by Flopy version 3.9.1 on 06/14/2025 at 10:34:09.

 OPENED model_2.nam
 FILE TYPE:GWF6               UNIT 1012   STATUS:OLD                 
 FORMAT:FORMATTED              ACCESS:SEQUENTIAL          
 ACTION:READ                

 # File generated by Flopy version 3.9.1 on 06/14/2025 at 10:34:09.

 OPENED model_2.dis
 FILE TYPE:DIS6               UNIT 1013   STATUS:OLD                 
 FORMAT:FORMATTED              ACCESS:SEQUENTIAL          
 ACTION:READ                

 # File generated by Flopy version 3.9.1 on 06/14/2025 at 10:34:09.

 OPENED model_2.npf
 FILE TYPE:NPF6               UNIT 1014   STATUS:OLD                 
 FORMAT:FORMATTED              ACCESS:SEQUENTIAL          
 ACTION:READ                

 # File generated by Flopy version 3.9.1 on 06/14/2025 at 10:34:09.

 OPENED model_2.sto
 FILE TYPE:STO6               UNIT 1015   STATUS:OLD                 
 FORMAT:FORMATTED              ACCESS:SEQUENTIAL          
 ACTION:READ                

 # File generated by Flopy version 3.9.1 on 06/14/2025 at 10:34:09.

 OPENED model_2.oc
 FILE TYPE:OC6       UNIT 1016   STATUS:OLD                 
 FORMAT:FORMATTED              ACCESS:SEQUENTIAL          
 ACTION:READ                


 OPENED model_2.drn
 FILE TYPE:DRN6               UNIT 1017   STATUS:OLD                 
 FORMAT:FORMATTED              ACCESS:SEQUENTIAL          
 ACTION:READ                

 # File generated by Flopy version 3.9.1 on 06/14/2025 at 10:34:09.

 OPENED model_2_0.drn
 FILE TYPE:DRN6               UNIT 1018   STATUS:OLD                 
 FORMAT:FORMATTED              ACCESS:SEQUENTIAL          
 ACTION:READ                

 # File generated by Flopy version 3.9.1 on 06/14/2025 at 10:34:09.
    AUXILIARY  VARIABLE: DEPTH           

 OPENED model_2.rcha
 FILE TYPE:RCH6               UNIT 1020   STATUS:OLD                 
 FORMAT:FORMATTED              ACCESS:SEQUENTIAL          
 ACTION:READ                

 # File generated by Flopy version 3.9.1 on 06/14/2025 at 10:34:09.

 OPENED model_3.nam
 FILE TYPE:GWF6               UNIT 1021   STATUS:OLD                 
 FORMAT:FORMATTED              ACCESS:SEQUENTIAL          
 ACTION:READ                

 # File generated by Flopy version 3.9.1 on 06/14/2025 at 10:34:09.

 OPENED model_3.dis
 FILE TYPE:DIS6               UNIT 1022   STATUS:OLD                 
 FORMAT:FORMATTED              ACCESS:SEQUENTIAL          
 ACTION:READ                

 # File generated by Flopy version 3.9.1 on 06/14/2025 at 10:34:09.

 OPENED model_3.npf
 FILE TYPE:NPF6               UNIT 1023   STATUS:OLD                 
 FORMAT:FORMATTED              ACCESS:SEQUENTIAL          
 ACTION:READ                

 # File generated by Flopy version 3.9.1 on 06/14/2025 at 10:34:09.

 OPENED model_3.sto
 FILE TYPE:STO6               UNIT 1024   STATUS:OLD                 
 FORMAT:FORMATTED              ACCESS:SEQUENTIAL          
 ACTION:READ                

 # File generated by Flopy version 3.9.1 on 06/14/2025 at 10:34:09.

 OPENED model_3.oc
 FILE TYPE:OC6       UNIT 1025   STATUS:OLD                 
 FORMAT:FORMATTED              ACCESS:SEQUENTIAL          
 ACTION:READ                


 OPENED model_3.drn
 FILE TYPE:DRN6               UNIT 1026   STATUS:OLD                 
 FORMAT:FORMATTED              ACCESS:SEQUENTIAL          
 ACTION:READ                

 # File generated by Flopy version 3.9.1 on 06/14/2025 at 10:34:09.

 OPENED model_3_0.drn
 FILE TYPE:DRN6               UNIT 1027   STATUS:OLD                 
 FORMAT:FORMATTED              ACCESS:SEQUENTIAL          
 ACTION:READ                

 # File generated by Flopy version 3.9.1 on 06/14/2025 at 10:34:09.
    AUXILIARY  VARIABLE: DEPTH           

 OPENED model_3.rcha
 FILE TYPE:RCH6               UNIT 1029   STATUS:OLD                 
 FORMAT:FORMATTED              ACCESS:SEQUENTIAL          
 ACTION:READ                

 # File generated by Flopy version 3.9.1 on 06/14/2025 at 10:34:09.

 OPENED model_4.nam
 FILE TYPE:GWF6               UNIT 1030   STATUS:OLD                 
 FORMAT:FORMATTED              ACCESS:SEQUENTIAL          
 ACTION:READ                

 # File generated by Flopy version 3.9.1 on 06/14/2025 at 10:34:09.

 OPENED model_4.dis
 FILE TYPE:DIS6               UNIT 1031   STATUS:OLD                 
 FORMAT:FORMATTED              ACCESS:SEQUENTIAL          
 ACTION:READ                

 # File generated by Flopy version 3.9.1 on 06/14/2025 at 10:34:09.

 OPENED model_4.npf
 FILE TYPE:NPF6               UNIT 1032   STATUS:OLD                 
 FORMAT:FORMATTED              ACCESS:SEQUENTIAL          
 ACTION:READ                

 # File generated by Flopy version 3.9.1 on 06/14/2025 at 10:34:09.

 OPENED model_4.sto
 FILE TYPE:STO6               UNIT 1033   STATUS:OLD                 
 FORMAT:FORMATTED              ACCESS:SEQUENTIAL          
 ACTION:READ                

 # File generated by Flopy version 3.9.1 on 06/14/2025 at 10:34:09.

 OPENED model_4.oc
 FILE TYPE:OC6       UNIT 1034   STATUS:OLD                 
 FORMAT:FORMATTED              ACCESS:SEQUENTIAL          
 ACTION:READ                


 OPENED model_4.drn
 FILE TYPE:DRN6               UNIT 1035   STATUS:OLD                 
 FORMAT:FORMATTED              ACCESS:SEQUENTIAL          
 ACTION:READ                

 # File generated by Flopy version 3.9.1 on 06/14/2025 at 10:34:09.
    AUXILIARY  VARIABLE: DEPTH           

 OPENED model_4.rcha
 FILE TYPE:RCH6               UNIT 1037   STATUS:OLD                 
 FORMAT:FORMATTED              ACCESS:SEQUENTIAL          
 ACTION:READ                

 # File generated by Flopy version 3.9.1 on 06/14/2025 at 10:34:09.

 OPENED model_5.nam
 FILE TYPE:GWF6               UNIT 1038   STATUS:OLD                 
 FORMAT:FORMATTED              ACCESS:SEQUENTIAL          
 ACTION:READ                

 # File generated by Flopy version 3.9.1 on 06/14/2025 at 10:34:09.

 OPENED model_5.dis
 FILE TYPE:DIS6               UNIT 1039   STATUS:OLD                 
 FORMAT:FORMATTED              ACCESS:SEQUENTIAL          
 ACTION:READ                

 # File generated by Flopy version 3.9.1 on 06/14/2025 at 10:34:09.

 OPENED model_5.npf
 FILE TYPE:NPF6               UNIT 1040   STATUS:OLD                 
 FORMAT:FORMATTED              ACCESS:SEQUENTIAL          
 ACTION:READ                

 # File generated by Flopy version 3.9.1 on 06/14/2025 at 10:34:09.

 OPENED model_5.sto
 FILE TYPE:STO6               UNIT 1041   STATUS:OLD                 
 FORMAT:FORMATTED              ACCESS:SEQUENTIAL          
 ACTION:READ                

 # File generated by Flopy version 3.9.1 on 06/14/2025 at 10:34:09.

 OPENED model_5.oc
 FILE TYPE:OC6       UNIT 1042   STATUS:OLD                 
 FORMAT:FORMATTED              ACCESS:SEQUENTIAL          
 ACTION:READ                


 OPENED model_5.drn
 FILE TYPE:DRN6               UNIT 1043   STATUS:OLD                 
 FORMAT:FORMATTED              ACCESS:SEQUENTIAL          
 ACTION:READ                

 # File generated by Flopy version 3.9.1 on 06/14/2025 at 10:34:09.

 OPENED model_5_0.drn
 FILE TYPE:DRN6               UNIT 1044   STATUS:OLD                 
 FORMAT:FORMATTED              ACCESS:SEQUENTIAL          
 ACTION:READ                

 # File generated by Flopy version 3.9.1 on 06/14/2025 at 10:34:09.
    AUXILIARY  VARIABLE: DEPTH           

 OPENED model_5.rcha
 FILE TYPE:RCH6               UNIT 1046   STATUS:OLD                 
 FORMAT:FORMATTED              ACCESS:SEQUENTIAL          
 ACTION:READ                

 # File generated by Flopy version 3.9.1 on 06/14/2025 at 10:34:09.

 OPENED model_6.nam
 FILE TYPE:GWF6               UNIT 1047   STATUS:OLD                 
 FORMAT:FORMATTED              ACCESS:SEQUENTIAL          
 ACTION:READ                

 # File generated by Flopy version 3.9.1 on 06/14/2025 at 10:34:09.

 OPENED model_6.dis
 FILE TYPE:DIS6               UNIT 1048   STATUS:OLD                 
 FORMAT:FORMATTED              ACCESS:SEQUENTIAL          
 ACTION:READ                

 # File generated by Flopy version 3.9.1 on 06/14/2025 at 10:34:09.

 OPENED model_6.npf
 FILE TYPE:NPF6               UNIT 1049   STATUS:OLD                 
 FORMAT:FORMATTED              ACCESS:SEQUENTIAL          
 ACTION:READ                

 # File generated by Flopy version 3.9.1 on 06/14/2025 at 10:34:09.

 OPENED model_6.sto
 FILE TYPE:STO6               UNIT 1050   STATUS:OLD                 
 FORMAT:FORMATTED              ACCESS:SEQUENTIAL          
 ACTION:READ                

 # File generated by Flopy version 3.9.1 on 06/14/2025 at 10:34:09.

 OPENED model_6.oc
 FILE TYPE:OC6       UNIT 1051   STATUS:OLD                 
 FORMAT:FORMATTED              ACCESS:SEQUENTIAL          
 ACTION:READ                


 OPENED model_6.drn
 FILE TYPE:DRN6               UNIT 1052   STATUS:OLD                 
 FORMAT:FORMATTED              ACCESS:SEQUENTIAL          
 ACTION:READ                

 # File generated by Flopy version 3.9.1 on 06/14/2025 at 10:34:09.

 OPENED model_6_0.drn
 FILE TYPE:DRN6               UNIT 1053   STATUS:OLD                 
 FORMAT:FORMATTED              ACCESS:SEQUENTIAL          
 ACTION:READ                

 # File generated by Flopy version 3.9.1 on 06/14/2025 at 10:34:09.
    AUXILIARY  VARIABLE: DEPTH           

 OPENED model_6.rcha
 FILE TYPE:RCH6               UNIT 1055   STATUS:OLD                 
 FORMAT:FORMATTED              ACCESS:SEQUENTIAL          
 ACTION:READ                

 # File generated by Flopy version 3.9.1 on 06/14/2025 at 10:34:09.

 OPENED model_7.nam
 FILE TYPE:GWF6               UNIT 1056   STATUS:OLD                 
 FORMAT:FORMATTED              ACCESS:SEQUENTIAL          
 ACTION:READ                

 # File generated by Flopy version 3.9.1 on 06/14/2025 at 10:34:09.

 OPENED model_7.dis
 FILE TYPE:DIS6               UNIT 1057   STATUS:OLD                 
 FORMAT:FORMATTED              ACCESS:SEQUENTIAL          
 ACTION:READ                

 # File generated by Flopy version 3.9.1 on 06/14/2025 at 10:34:09.

 OPENED model_7.npf
 FILE TYPE:NPF6               UNIT 1058   STATUS:OLD                 
 FORMAT:FORMATTED              ACCESS:SEQUENTIAL          
 ACTION:READ                

 # File generated by Flopy version 3.9.1 on 06/14/2025 at 10:34:09.

 OPENED model_7.sto
 FILE TYPE:STO6               UNIT 1059   STATUS:OLD                 
 FORMAT:FORMATTED              ACCESS:SEQUENTIAL          
 ACTION:READ                

 # File generated by Flopy version 3.9.1 on 06/14/2025 at 10:34:09.

 OPENED model_7.oc
 FILE TYPE:OC6       UNIT 1060   STATUS:OLD                 
 FORMAT:FORMATTED              ACCESS:SEQUENTIAL          
 ACTION:READ                


 OPENED model_7.drn
 FILE TYPE:DRN6               UNIT 1061   STATUS:OLD                 
 FORMAT:FORMATTED              ACCESS:SEQUENTIAL          
 ACTION:READ                

 # File generated by Flopy version 3.9.1 on 06/14/2025 at 10:34:09.

 OPENED model_7_0.drn
 FILE TYPE:DRN6               UNIT 1062   STATUS:OLD                 
 FORMAT:FORMATTED              ACCESS:SEQUENTIAL          
 ACTION:READ                

 # File generated by Flopy version 3.9.1 on 06/14/2025 at 10:34:09.
    AUXILIARY  VARIABLE: DEPTH           

 OPENED model_7.rcha
 FILE TYPE:RCH6               UNIT 1064   STATUS:OLD                 
 FORMAT:FORMATTED              ACCESS:SEQUENTIAL          
 ACTION:READ                

 # File generated by Flopy version 3.9.1 on 06/14/2025 at 10:34:09.

 OPENED model_8.nam
 FILE TYPE:GWF6               UNIT 1065   STATUS:OLD                 
 FORMAT:FORMATTED              ACCESS:SEQUENTIAL          
 ACTION:READ                

 # File generated by Flopy version 3.9.1 on 06/14/2025 at 10:34:09.

 OPENED model_8.dis
 FILE TYPE:DIS6               UNIT 1066   STATUS:OLD                 
 FORMAT:FORMATTED              ACCESS:SEQUENTIAL          
 ACTION:READ                

 # File generated by Flopy version 3.9.1 on 06/14/2025 at 10:34:09.

 OPENED model_8.npf
 FILE TYPE:NPF6               UNIT 1067   STATUS:OLD                 
 FORMAT:FORMATTED              ACCESS:SEQUENTIAL          
 ACTION:READ                

 # File generated by Flopy version 3.9.1 on 06/14/2025 at 10:34:09.

 OPENED model_8.sto
 FILE TYPE:STO6               UNIT 1068   STATUS:OLD                 
 FORMAT:FORMATTED              ACCESS:SEQUENTIAL          
 ACTION:READ                

 # File generated by Flopy version 3.9.1 on 06/14/2025 at 10:34:09.

 OPENED model_8.oc
 FILE TYPE:OC6       UNIT 1069   STATUS:OLD                 
 FORMAT:FORMATTED              ACCESS:SEQUENTIAL          
 ACTION:READ                


 OPENED model_8.drn
 FILE TYPE:DRN6               UNIT 1070   STATUS:OLD                 
 FORMAT:FORMATTED              ACCESS:SEQUENTIAL          
 ACTION:READ                

 # File generated by Flopy version 3.9.1 on 06/14/2025 at 10:34:09.

 OPENED model_8_0.drn
 FILE TYPE:DRN6               UNIT 1071   STATUS:OLD                 
 FORMAT:FORMATTED              ACCESS:SEQUENTIAL          
 ACTION:READ                

 # File generated by Flopy version 3.9.1 on 06/14/2025 at 10:34:09.
    AUXILIARY  VARIABLE: DEPTH           

 OPENED model_8.rcha
 FILE TYPE:RCH6               UNIT 1073   STATUS:OLD                 
 FORMAT:FORMATTED              ACCESS:SEQUENTIAL          
 ACTION:READ                

 # File generated by Flopy version 3.9.1 on 06/14/2025 at 10:34:09.

 OPENED sim_model_1_model_2.gwfgwf
 FILE TYPE:GWF6-GWF6          UNIT 1074   STATUS:OLD                 
 FORMAT:FORMATTED              ACCESS:SEQUENTIAL          
 ACTION:READ                

 # File generated by Flopy version 3.9.1 on 06/14/2025 at 10:34:09.
    AUXILIARY  VARIABLE: ANGLDEGX        
    AUXILIARY  VARIABLE: CDIST           

 OPENED sim_model_1_model_5.gwfgwf
 FILE TYPE:GWF6-GWF6          UNIT 1075   STATUS:OLD                 
 FORMAT:FORMATTED              ACCESS:SEQUENTIAL          
 ACTION:READ                

 # File generated by Flopy version 3.9.1 on 06/14/2025 at 10:34:09.
    AUXILIARY  VARIABLE: ANGLDEGX        
    AUXILIARY  VARIABLE: CDIST           

 OPENED sim_model_2_model_3.gwfgwf
 FILE TYPE:GWF6-GWF6          UNIT 1076   STATUS:OLD                 
 FORMAT:FORMATTED              ACCESS:SEQUENTIAL          
 ACTION:READ                

 # File generated by Flopy version 3.9.1 on 06/14/2025 at 10:34:09.
    AUXILIARY  VARIABLE: ANGLDEGX        
    AUXILIARY  VARIABLE: CDIST           

 OPENED sim_model_2_model_6.gwfgwf
 FILE TYPE:GWF6-GWF6          UNIT 1077   STATUS:OLD                 
 FORMAT:FORMATTED              ACCESS:SEQUENTIAL          
 ACTION:READ                

 # File generated by Flopy version 3.9.1 on 06/14/2025 at 10:34:09.
    AUXILIARY  VARIABLE: ANGLDEGX        
    AUXILIARY  VARIABLE: CDIST           

 OPENED sim_model_3_model_4.gwfgwf
 FILE TYPE:GWF6-GWF6          UNIT 1078   STATUS:OLD                 
 FORMAT:FORMATTED              ACCESS:SEQUENTIAL          
 ACTION:READ                

 # File generated by Flopy version 3.9.1 on 06/14/2025 at 10:34:09.
    AUXILIARY  VARIABLE: ANGLDEGX        
    AUXILIARY  VARIABLE: CDIST           

 OPENED sim_model_3_model_7.gwfgwf
 FILE TYPE:GWF6-GWF6          UNIT 1079   STATUS:OLD                 
 FORMAT:FORMATTED              ACCESS:SEQUENTIAL          
 ACTION:READ                

 # File generated by Flopy version 3.9.1 on 06/14/2025 at 10:34:09.
    AUXILIARY  VARIABLE: ANGLDEGX        
    AUXILIARY  VARIABLE: CDIST           

 OPENED sim_model_4_model_8.gwfgwf
 FILE TYPE:GWF6-GWF6          UNIT 1080   STATUS:OLD                 
 FORMAT:FORMATTED              ACCESS:SEQUENTIAL          
 ACTION:READ                

 # File generated by Flopy version 3.9.1 on 06/14/2025 at 10:34:09.
    AUXILIARY  VARIABLE: ANGLDEGX        
    AUXILIARY  VARIABLE: CDIST           

 OPENED sim_model_5_model_6.gwfgwf
 FILE TYPE:GWF6-GWF6          UNIT 1081   STATUS:OLD                 
 FORMAT:FORMATTED              ACCESS:SEQUENTIAL          
 ACTION:READ                

 # File generated by Flopy version 3.9.1 on 06/14/2025 at 10:34:09.
    AUXILIARY  VARIABLE: ANGLDEGX        
    AUXILIARY  VARIABLE: CDIST           

 OPENED sim_model_6_model_7.gwfgwf
 FILE TYPE:GWF6-GWF6          UNIT 1082   STATUS:OLD                 
 FORMAT:FORMATTED              ACCESS:SEQUENTIAL          
 ACTION:READ                

 # File generated by Flopy version 3.9.1 on 06/14/2025 at 10:34:09.
    AUXILIARY  VARIABLE: ANGLDEGX        
    AUXILIARY  VARIABLE: CDIST           

 OPENED sim_model_7_model_8.gwfgwf
 FILE TYPE:GWF6-GWF6          UNIT 1083   STATUS:OLD                 
 FORMAT:FORMATTED              ACCESS:SEQUENTIAL          
 ACTION:READ                

 # File generated by Flopy version 3.9.1 on 06/14/2025 at 10:34:09.
    AUXILIARY  VARIABLE: ANGLDEGX        
    AUXILIARY  VARIABLE: CDIST           

 READING SIMULATION OPTIONS
    MAXIMUM NUMBER OF ERRORS THAT WILL BE STORED IS 1000
 END OF SIMULATION OPTIONS

 READING SIMULATION TIMING

 TDIS -- TEMPORAL DISCRETIZATION PACKAGE,
 VERSION 1 : 11/13/2014 - INPUT READ FROM MEMPATH: __INPUT__/SIM/TDIS                                
 PROCESSING TDIS OPTIONS
    SIMULATION TIME UNIT IS UNDEFINED
 END OF TDIS OPTIONS
 PROCESSING TDIS DIMENSIONS
    1 STRESS PERIOD(S) IN SIMULATION
 END OF TDIS DIMENSIONS
 PROCESSING TDIS PERIODDATA


 STRESS PERIOD     LENGTH       TIME STEPS     MULTIPLIER FOR DELT
 ----------------------------------------------------------------------------
        1         1.000000          1                    1.000
 END OF TDIS PERIODDATA
 END OF SIMULATION TIMING

 READING SIMULATION MODELS
    GWF6 model 1 will be created

ERROR REPORT:

  1. Initial Conditions (IC6) package not specified.
  2. One or more required package(s) not specified.

UNIT ERROR REPORT:

  1. ERROR OCCURRED WHILE READING FILE 'model_1.nam'
