                                   MODFLOW 6
                U.S. GEOLOGICAL SURVEY MODULAR HYDROLOGIC MODEL
                          GROUNDWATER FLOW MODEL (GWF)
                   VERSION 6.3.0 release candidate 07/30/2021
                               ***DEVELOP MODE***

   MODFLOW 6 compiled Oct 27 2021 07:53:31 with IFORT compiler (ver. 20.21.1)

This software is preliminary or provisional and is subject to 
revision. It is being provided to meet the need for timely best 
science. The software has not received final approval by the U.S. 
Geological Survey (USGS). No warranty, expressed or implied, is made 
by the USGS or the U.S. Government as to the functionality of the 
software and related material nor shall the fact of release 
constitute any such warranty. The software is provided on the 
condition that neither the USGS nor the U.S. Government shall be held 
liable for any damages resulting from the authorized or unauthorized 
use of the software.


System command used to initiate simulation:
E:\15_REPOS\00_BETAMI\bin\mf6.exe

MODFLOW was compiled using uniform precision.

Real Variables
  KIND: 8
  TINY (smallest non-zero value):    2.225074-308
  HUGE (largest value):    1.797693+308
  PRECISION: 15
  BIT SIZE: 64

Integer Variables
  KIND: 4
  HUGE (largest value): 2147483647
  BIT SIZE: 32

Long Integer Variables
  KIND: 8
  HUGE (largest value): 9223372036854775807
  BIT SIZE: 64

Logical Variables
  KIND: 4
  BIT SIZE: 32
 

 OPENED Freyberg.dis
 FILE TYPE:DIS6                   UNIT 1005   STATUS:OLD                 
 FORMAT:FORMATTED              ACCESS:SEQUENTIAL          
 ACTION:READ                


 OPENED Freyberg.npf
 FILE TYPE:NPF6                   UNIT 1006   STATUS:OLD                 
 FORMAT:FORMATTED              ACCESS:SEQUENTIAL          
 ACTION:READ                


 OPENED Freyberg.ic
 FILE TYPE:IC6                    UNIT 1007   STATUS:OLD                 
 FORMAT:FORMATTED              ACCESS:SEQUENTIAL          
 ACTION:READ                


 OPENED Freyberg.riv
 FILE TYPE:RIV6                   UNIT 1008   STATUS:OLD                 
 FORMAT:FORMATTED              ACCESS:SEQUENTIAL          
 ACTION:READ                


 OPENED Freyberg.wel
 FILE TYPE:WEL6                   UNIT 1009   STATUS:OLD                 
 FORMAT:FORMATTED              ACCESS:SEQUENTIAL          
 ACTION:READ                


 OPENED Freyberg.rcha
 FILE TYPE:RCH6                   UNIT 1010   STATUS:OLD                 
 FORMAT:FORMATTED              ACCESS:SEQUENTIAL          
 ACTION:READ                


 OPENED Freyberg.chd
 FILE TYPE:CHD6                   UNIT 1011   STATUS:OLD                 
 FORMAT:FORMATTED              ACCESS:SEQUENTIAL          
 ACTION:READ                


 OPENED Freyberg.cf.wel
 FILE TYPE:WEL6                   UNIT 1012   STATUS:OLD                 
 FORMAT:FORMATTED              ACCESS:SEQUENTIAL          
 ACTION:READ                


 OPENED Freyberg.oc
 FILE TYPE:OC6                    UNIT 1013   STATUS:OLD                 
 FORMAT:FORMATTED              ACCESS:SEQUENTIAL          
 ACTION:READ                


 OPENED freyberg_0.wel
 FILE TYPE:WEL6                   UNIT 1014   STATUS:OLD                 
 FORMAT:FORMATTED              ACCESS:SEQUENTIAL          
 ACTION:READ                

 NAMEFILE OPTIONS:
    NEWTON-RAPHSON method enabled for the model.
    NEWTON-RAPHSON UNDER-RELAXATION based on the bottom elevation of the model will be applied to the model.

 DIS -- STRUCTURED GRID DISCRETIZATION PACKAGE, VERSION 2 : 3/27/2014 - INPUT READ FROM UNIT 1005


 # File generated by Flopy version 3.8.2 on 06/17/2025 at 07:26:06.
 PROCESSING DISCRETIZATION OPTIONS
    MODEL LENGTH UNIT IS METERS
 END OF DISCRETIZATION OPTIONS
 PROCESSING DISCRETIZATION DIMENSIONS
    NLAY =       1
    NROW =      40
    NCOL =      20
 END OF DISCRETIZATION DIMENSIONS
 PROCESSING GRIDDATA

                     DELR =   250.0000    

                     DELC =   250.0000    

 TOP ELEVATION OF LAYER 1 =   35.00000    
 END PROCESSING GRIDDATA

 THE SPECIFIED IDOMAIN RESULTS IN A REDUCED NUMBER OF CELLS.
 NUMBER OF USER NODES: 800
 NUMBER OF NODES IN SOLUTION: 705



 NPF -- NODE PROPERTY FLOW PACKAGE, VERSION 1, 3/30/2015 INPUT READ FROM UNIT 1006


 # File generated by Flopy version 3.8.2 on 06/17/2025 at 07:26:06.
 PROCESSING NPF OPTIONS
 END OF NPF OPTIONS

 WEL   -- WEL PACKAGE, VERSION 8, 2/22/2014 INPUT READ FROM UNIT 1009
 # File generated by Flopy version 3.8.2 on 06/17/2025 at 07:26:06.

 PROCESSING WEL OPTIONS
 END OF WEL OPTIONS

 PROCESSING WEL DIMENSIONS
    MAXBOUND =       6
 END OF WEL DIMENSIONS

 WEL   -- WEL PACKAGE, VERSION 8, 2/22/2014 INPUT READ FROM UNIT 1012
 # File generated by Flopy version 3.8.2 on 06/17/2025 at 07:26:06.

 PROCESSING WEL OPTIONS
 END OF WEL OPTIONS

 PROCESSING WEL DIMENSIONS
    MAXBOUND =       1
 END OF WEL DIMENSIONS

 WEL   -- WEL PACKAGE, VERSION 8, 2/22/2014 INPUT READ FROM UNIT 1014
 # File generated by Flopy version 3.8.2 on 06/17/2025 at 07:26:06.

 PROCESSING WEL OPTIONS
 END OF WEL OPTIONS

 PROCESSING WEL DIMENSIONS
    MAXBOUND =      10
 END OF WEL DIMENSIONS

 RIV   -- RIV PACKAGE, VERSION 8, 2/22/2014 INPUT READ FROM UNIT 1008
 # File generated by Flopy version 3.8.2 on 06/17/2025 at 07:26:06.

 PROCESSING RIV OPTIONS
 END OF RIV OPTIONS

 PROCESSING RIV DIMENSIONS
    MAXBOUND =      40
 END OF RIV DIMENSIONS

 RCH   -- RCH PACKAGE, VERSION 8, 2/22/2014 INPUT READ FROM UNIT 1010
 # File generated by Flopy version 3.8.2 on 06/17/2025 at 07:26:06.

 PROCESSING RCH OPTIONS
    RECHARGE INPUT WILL BE READ AS ARRAY(S).
 END OF RCHA OPTIONS

 CHD   -- CHD PACKAGE, VERSION 8, 2/22/2014 INPUT READ FROM UNIT 1011
 # File generated by Flopy version 3.8.2 on 06/17/2025 at 07:26:06.

 PROCESSING CHD OPTIONS
 END OF CHD OPTIONS

 PROCESSING CHD DIMENSIONS
    MAXBOUND =      10
 END OF CHD DIMENSIONS

 IC -- INITIAL CONDITIONS PACKAGE, VERSION 8, 3/28/2015 INPUT READ FROM UNIT 1007
 # File generated by Flopy version 3.8.2 on 06/17/2025 at 07:26:06.
 PROCESSING IC OPTIONS
 END OF IC OPTIONS
 PROCESSING GRIDDATA

     INITIAL HEAD =   45.00000    
 END PROCESSING GRIDDATA
 PROCESSING GRIDDATA

                ICELLTYPE = 1
 K33 not provided.  Assuming K33 = K.
 K22 not provided.  Assuming K22 = K.
 END PROCESSING GRIDDATA
    BINARY GRID INFORMATION WILL BE WRITTEN TO:
      UNIT NUMBER: 1016
      FILE NAME: e:\15_REPOS\00_BETAMI\95_Freyberg\01b\Freyberg.dis.grb

 OPENED e:\15_REPOS\00_BETAMI\95_Freyberg\01b\Freyberg.dis.grb
 FILE TYPE:DATA(BINARY)   UNIT 1016   STATUS:REPLACE             
 FORMAT:UNFORMATTED            ACCESS:STREAM              
 ACTION:READWRITE           

      THE LAST TIME STEP WILL BE PRINTED
      THE LAST TIME STEP WILL BE PRINTED
 # File generated by Flopy version 3.8.2 on 06/17/2025 at 07:26:06.

 PROCESSING OC OPTIONS

    BUDGET INFORMATION WILL BE WRITTEN TO:
      UNIT NUMBER: 1017
      FILE NAME: Freyberg.bud

 OPENED Freyberg.bud
 FILE TYPE:DATA(BINARY)   UNIT 1017   STATUS:REPLACE             
 FORMAT:UNFORMATTED            ACCESS:STREAM              
 ACTION:READWRITE           

    HEAD INFORMATION WILL BE WRITTEN TO:
      UNIT NUMBER: 1018
      FILE NAME: Freyberg.hds

 OPENED Freyberg.hds
 FILE TYPE:DATA(BINARY)   UNIT 1018   STATUS:REPLACE             
 FORMAT:UNFORMATTED            ACCESS:STREAM              
 ACTION:READWRITE           

 END OF OC OPTIONS

start timestep kper="1" kstp="1" mode="normal"


 BEGIN READING OUTPUT CONTROL FOR STRESS PERIOD 1
      ALL TIME STEPS WILL BE SAVED
      ALL TIME STEPS WILL BE SAVED
      ALL TIME STEPS WILL BE PRINTED
      ALL TIME STEPS WILL BE PRINTED

 END READING OUTPUT CONTROL FOR STRESS PERIOD 1

 REUSING WELS FROM LAST STRESS PERIOD

                 RECHARGE =  0.1600000E-08
1
  HEAD IN LAYER   1 AT END OF TIME STEP   1 IN STRESS PERIOD    1
  ---------------------------------------------------------------------------

                1               2               3               4               5               6               7               8               9              10
               11              12              13              14              15              16              17              18              19              20
 ................................................................................................................................................................
   1      24.1820         24.0648         23.7892         23.3401         22.8984         22.4163         21.8375         21.3768         20.8472         20.3321    
          19.8546         19.4714         19.1894         18.9133         18.2745         19.1607         19.5156         19.6802         19.7622         19.8064    
   2      24.2011         24.0673         23.7832         23.3063         22.9066         22.4120         21.8212         21.3207         20.7874         20.1913    
          19.6735         19.2885         19.0956         19.2095         19.7944         19.5513         19.6111         19.6944         19.7489         19.7834    
   3      24.2239         24.0951         23.7713         23.2851         22.8939         22.3808         21.7513         21.2430         20.6267         19.9645    
          19.2993         18.7996         18.5481         18.9359         19.6255         19.5738         19.6060         19.6536         19.6962         19.7246    
   4      24.2831         24.1306         23.7786         23.2793         22.8538         22.3387         21.6654         21.0984         20.4412         19.5264    
          18.7089         17.9209         17.2565         18.3027         19.3859         19.4327         19.4996         19.5514         19.5938         19.6199    
   5      24.3491         24.1604         23.7898         23.3105         22.8080         22.1852         21.5757         20.9973         20.0736         19.1570    
          18.2453         17.0156         14.2068         17.5077         19.1398         19.2238         19.2925         19.3818         19.4382         19.4732    
   6      24.4049         24.2513         23.8619         23.3506         22.7176         21.9180         21.3949         20.6885         19.9605         18.9554    
          18.0959         17.3690         16.7447         17.7760         18.9314         18.9647         19.0524         19.1534         19.2504         19.2926    
   7      24.4689         24.3193         23.9994         23.4383         22.5962         21.0474         21.0434         20.4213         19.6698         18.7145    
          18.0546         17.5558         17.3148         17.7694         18.7129         18.6015         18.7358         18.8972         19.0169         19.0809    
   8      24.6316         24.4592         24.1833         23.7093         22.8356         21.7467         21.1128         20.1964         19.2657         18.4242    
          17.8853         17.4386         17.1480         17.1991         18.4606         17.9498         18.2613         18.5822         18.7708         18.8687    
   9      24.7757         24.6558         24.4828         24.3247        1.000000E+30    1.000000E+30    1.000000E+30     19.2994         18.5643         18.1021    
          17.6495         17.1446         16.5309         15.2178         18.1632         16.3265         17.7250         18.2810         18.5568         18.6697    
  10      24.9142         24.8217         24.7396         24.6485        1.000000E+30    1.000000E+30    1.000000E+30    1.000000E+30     18.0508         17.7632    
          17.3850         16.9569         16.5147         16.6974         18.0103         17.5191         17.8753         18.2059         18.4322         18.5332    
  11      24.9697         24.9248         24.8734         24.8311        1.000000E+30    1.000000E+30    1.000000E+30    1.000000E+30     17.6221         17.4301    
          17.1526         16.6772         15.6605         16.8906         17.8074         17.7829         17.9636         18.1784         18.3419         18.4271    
  12      24.9483         24.9320         24.9035         24.8709        1.000000E+30    1.000000E+30    1.000000E+30    1.000000E+30     17.2118         17.1268    
          16.9804         16.7908         16.6345         17.0912         17.5962         17.7630         17.9528         18.1195         18.2552         18.3207    
  13      24.8745         24.8575         24.8277         24.7892        1.000000E+30    1.000000E+30    1.000000E+30    1.000000E+30     16.8011         16.7962    
          16.7643         16.7423         16.8062         17.0631         17.3762         17.6212         17.8555         18.0262         18.1508         18.2142    
  14      24.7154         24.7073         24.6592         24.6238        1.000000E+30    1.000000E+30    1.000000E+30    1.000000E+30     16.2905         16.3647    
          16.4448         16.5219         16.6553         16.8943         17.1538         17.4641         17.7348         17.9151         18.0275         18.0807    
  15      24.4718         24.4652         24.4229         24.4070        1.000000E+30    1.000000E+30    1.000000E+30    1.000000E+30     15.3629         15.7667    
          16.0093         16.1275         16.2602         16.5320         16.9251         17.2830         17.5942         17.7856         17.9005         17.9513    
  16      24.1653         24.1438         24.1158         24.1175        1.000000E+30    1.000000E+30    1.000000E+30    1.000000E+30     13.4452         14.9871    
          15.4983         15.5794         15.6401         15.8804         16.6894         17.0827         17.4216         17.6342         17.7594         17.8145    
  17      23.7579         23.7211         23.7202         23.7446        1.000000E+30    1.000000E+30    1.000000E+30    1.000000E+30     14.7964         15.2040    
          15.2565         14.9145         14.7042         14.5073         16.4376         16.8609         17.2245         17.4721         17.6054         17.6617    
  18      23.3279         23.2949         23.2623         23.2902        1.000000E+30    1.000000E+30    1.000000E+30    1.000000E+30     15.6773         15.6021    
          15.3376         14.7284         13.5941         10.5731         16.1400         16.6361         17.0148         17.2874         17.4383         17.5085    
  19      22.7841         22.7603         22.7379         22.7482        1.000000E+30    1.000000E+30    1.000000E+30    1.000000E+30     16.2487         16.0508    
          15.6770         15.0798         14.2887         13.8104         15.9810         16.4529         16.8401         17.1222         17.2795         17.3560    
  20      22.1295         22.1068         22.1092         22.1062        1.000000E+30    1.000000E+30    1.000000E+30    1.000000E+30     16.7703         16.5038    
          16.0903         15.5270         14.7469         13.8544         15.7652         16.2705         16.6636         16.9551         17.1292         17.1973    
  21      21.3446         21.3113         21.3947         21.4346        1.000000E+30    1.000000E+30    1.000000E+30    1.000000E+30     17.2379         16.9163    
          16.5202         16.0178         15.4355         15.0795         15.5636         16.0855         16.4911         16.7814         16.9645         17.0425    
  22      20.5242         20.2310         20.5594         20.7720        1.000000E+30    1.000000E+30     18.6654         18.3891         17.7344         17.3416    
          16.8763         16.3817         15.8411         15.4442         15.3490         15.8941         16.3317         16.6163         16.7913         16.8828    
  23      19.4679         18.2231         19.7810         20.2385         20.1489        1.000000E+30     18.8206         18.5536         18.0238         17.6266    
          17.1191         16.6172         16.0154         15.4993         15.1287         15.6904         16.1504         16.4722         16.6430         16.7317    
  24      19.6997         19.4600         19.8506         20.0597         19.9643         19.5998         19.1130         18.6734         18.2456         17.7694    
          17.2467         16.6984         16.0610         15.4339         14.9041         15.5229         15.9905         16.3010         16.4937         16.5830    
  25      20.0318         19.9500         20.0169         20.0518         19.8874         19.5744         19.2263         18.8176         18.3271         17.7508    
          17.2756         16.6950         16.0074         15.3016         14.6796         15.3111         15.8398         16.1445         16.3417         16.4297    
  26      20.3082         20.2254         20.1882         20.0904         19.8857         19.6065         19.2764         18.8577         18.3449         17.6303    
          17.2091         16.5846         15.8851         15.1666         14.4575         15.1321         15.6776         15.9939         16.1976         16.2871    
  27      20.4663         20.3956         20.2993         20.1628         19.9179         19.6315         19.3179         18.8979         18.3925         17.8743    
          17.1631         16.3923         15.7791         15.0533         14.2249         14.9660         15.5290         15.8570         16.0486         16.1386    
  28      20.5689         20.4938         20.3675         20.1921         19.9369         19.6564         19.3512         18.8699         18.3251         17.7573    
          16.9963         16.2535         15.6041         14.8667         13.9978         14.7834         15.3734         15.7124         15.8909         15.9800    
  29      20.6231         20.5235         20.3956         20.1981         19.9308         19.5539         19.4138         18.8508         18.1035         17.5663    
          16.7880         15.9732         15.3490         14.6152         13.7679         14.5917         15.2224         15.5530         15.7228         15.7993    
  30      20.6199         20.5139         20.3718         20.1826         19.9761         19.7569         19.4561         18.7812         17.9375         17.1882    
          16.3425         15.5380         14.9461         14.3054         13.5403         14.3661         15.0032         15.3432         15.4808         15.5441    
  31      20.5922         20.4888         20.3263         20.1351         19.9148         19.7083         19.3182         18.4725         17.5693         16.6785    
          15.7192         14.9818         14.4409         13.9330         13.3068         14.1092         14.6877         15.0088         15.1034         15.1408    
  32      20.5678         20.4160         20.2218         19.9483         19.7497         19.5114         19.0023         18.0805         17.2566         16.0151    
          14.9237         14.0436         13.7326         13.3812         13.0724         13.6988         14.1745         14.4352         14.5900         14.6282    
  33     1.000000E+30     20.2919         20.0702         19.7632         19.4938         19.1287         18.5515         18.0207         16.8405         14.9072    
          13.4219         11.6286         12.1606         12.5339         12.8390         13.1591         13.5332         13.7845         13.9946         14.0741    
  34     1.000000E+30    1.000000E+30     19.8504         19.5229         19.2044         18.7884         18.1848         17.4639         16.1055         14.2756    
          11.4469         5.33084         9.09459         11.3602         12.6011         12.7457         12.9154         13.1884         13.3980         13.5954    
  35     1.000000E+30    1.000000E+30    1.000000E+30     19.2501         18.8260         18.4094         17.8597         17.1306         15.8992         13.9121    
          10.9251         7.03873         6.14328         9.70288         12.3544         12.1774         12.1575         12.4151         12.7312         13.2446    
  36     1.000000E+30    1.000000E+30    1.000000E+30    1.000000E+30     18.3515         18.0390         17.5492         16.7819         15.6700         13.2671    
          9.25511         3.93206         1.47206         7.79462         12.0976         11.2214         10.9462         11.3311         11.7600        1.000000E+30
  37     1.000000E+30    1.000000E+30    1.000000E+30    1.000000E+30     18.1046         17.7148         17.2203         16.4345         15.4161         13.0013    
          8.25574        0.320126        0.548960         6.98259         11.8550         9.34031         9.10702         10.0778         11.0713        1.000000E+30
  38     1.000000E+30    1.000000E+30    1.000000E+30    1.000000E+30    1.000000E+30     17.2379         16.8812         16.2961         15.5835         13.8429    
          10.9037         8.22864         10.9482         9.63212         11.6363         4.77024         5.61380         8.22029        1.000000E+30    1.000000E+30
  39     1.000000E+30    1.000000E+30    1.000000E+30    1.000000E+30    1.000000E+30     16.9616         16.6607         16.2115         15.6578         14.5842    
          12.8439         11.3901         11.2851         11.0971         11.2852        0.681900         2.62932        1.000000E+30    1.000000E+30    1.000000E+30
  40     1.000000E+30    1.000000E+30    1.000000E+30    1.000000E+30    1.000000E+30     16.9000         16.4000         16.1000         15.6000         15.1000    
          14.0000         13.0000         12.5000         12.0000         11.4000        1.000000E+30    1.000000E+30    1.000000E+30    1.000000E+30    1.000000E+30

 HEAD WILL BE SAVED ON UNIT 1018 AT END OF TIME STEP    1, STRESS PERIOD    1


  VOLUME BUDGET FOR ENTIRE MODEL AT END OF TIME STEP    1, STRESS PERIOD   1
  ---------------------------------------------------------------------------------------------------

     CUMULATIVE VOLUME      L**3       RATES FOR THIS TIME STEP      L**3/T          PACKAGE NAME    
     ------------------                 ------------------------                     ----------------

           IN:                                      IN:
           ---                                      ---
                 WEL =           0.0000                   WEL =           0.0000     WEL-1           
                 WEL =           0.0000                   WEL =           0.0000     CF-1            
                 WEL =           0.0000                   WEL =           0.0000     WEL_0           
                 RIV =       6.1514E-02                   RIV =       6.1514E-02     RIV-1           
                RCHA =       6.9500E-02                  RCHA =       6.9500E-02     RCHA_0          
                 CHD =       1.5172E-03                   CHD =       1.5172E-03     CHD_0           

            TOTAL IN =           0.1325              TOTAL IN =           0.1325

          OUT:                                     OUT:
          ----                                     ----
                 WEL =       2.2050E-02                   WEL =       2.2050E-02     WEL-1           
                 WEL =           0.0000                   WEL =           0.0000     CF-1            
                 WEL =       9.8309E-02                   WEL =       9.8309E-02     WEL_0           
                 RIV =       1.1876E-02                   RIV =       1.1876E-02     RIV-1           
                RCHA =           0.0000                  RCHA =           0.0000     RCHA_0          
                 CHD =       3.5408E-04                   CHD =       3.5408E-04     CHD_0           

           TOTAL OUT =           0.1326             TOTAL OUT =           0.1326

            IN - OUT =      -5.8219E-05              IN - OUT =      -5.8219E-05

 PERCENT DISCREPANCY =          -0.04     PERCENT DISCREPANCY =          -0.04




         TIME SUMMARY AT END OF TIME STEP    1 IN STRESS PERIOD    1
                    SECONDS     MINUTES      HOURS       DAYS        YEARS
                    -----------------------------------------------------------
   TIME STEP LENGTH  1.0000     1.66667E-02 2.77778E-04 1.15741E-05 3.16881E-08
 STRESS PERIOD TIME  1.0000     1.66667E-02 2.77778E-04 1.15741E-05 3.16881E-08
         TOTAL TIME  1.0000     1.66667E-02 2.77778E-04 1.15741E-05 3.16881E-08


         ****FAILED TO MEET SOLVER CONVERGENCE CRITERIA IN TIME STEP 1 OF STRESS PERIOD 1****

end timestep

