                                   MODFLOW 6
                U.S. GEOLOGICAL SURVEY MODULAR HYDROLOGIC MODEL
                          GROUNDWATER FLOW MODEL (GWF)
                   VERSION 6.3.0 release candidate 02/06/2022
                               ***DEVELOP MODE***

   MODFLOW 6 compiled Feb 06 2022 02:35:51 with Intel(R) Fortran Intel(R) 64
   Compiler Classic for applications running on Intel(R) 64, Version 2021.5.0
                             Build 20211109_000000

This software is preliminary or provisional and is subject to 
revision. It is being provided to meet the need for timely best 
science. The software has not received final approval by the U.S. 
Geological Survey (USGS). No warranty, expressed or implied, is made 
by the USGS or the U.S. Government as to the functionality of the 
software and related material nor shall the fact of release 
constitute any such warranty. The software is provided on the 
condition that neither the USGS nor the U.S. Government shall be held 
liable for any damages resulting from the authorized or unauthorized 
use of the software.


As a work of the United States Government, this USGS product is 
in the public domain within the United States. You can copy, 
modify, distribute, and perform the work, even for commercial 
purposes, all without asking permission. Additionally, USGS 
waives copyright and related rights in the work worldwide 
through CC0 1.0 Universal Public Domain Dedication 
(https://creativecommons.org/publicdomain/zero/1.0/).

The following GNU Lesser General Public License (LGPL) libraries
are used in this USGS product:

    SPARSKIT version 2.0
      ilut, luson, and qsplit 
      (https://www-users.cse.umn.edu/~saad/software/SPARSKIT/)

    RCM - Reverse Cuthill McKee Ordering
      (https://people.math.sc.edu/Burkardt/f_src/rcm/rcm.html)

    BLAS - Basic Linear Algebra Subprograms Level 1
      (https://people.math.sc.edu/Burkardt/f_src/blas1_d/blas1_d.html)

    SPARSEKIT - Sparse Matrix Utility Package
      amux, dperm, dvperm, rperm, and cperm
      (https://people.sc.fsu.edu/~jburkardt/f77_src/sparsekit/sparsekit.html)

The following BSD-3 License libraries are used in this USGS product:

    Modern Fortran DAG Library
      Copyright (c) 2018, Jacob Williams
      All rights reserved.
      (https://github.com/jacobwilliams/daglib)

MODFLOW 6 compiler options: /O2 /heap-arrays:0 /fpe:0 /traceback /nologo /fpp
/c /module:.\mod_temp\ /object:.\obj_temp\

System command used to initiate simulation:
mf6.exe

MODFLOW was compiled using uniform precision.

Real Variables
  KIND: 8
  TINY (smallest non-zero value):    2.225074-308
  HUGE (largest value):    1.797693+308
  PRECISION: 15
  BIT SIZE: 64

Integer Variables
  KIND: 4
  HUGE (largest value): 2147483647
  BIT SIZE: 32

Long Integer Variables
  KIND: 8
  HUGE (largest value): 9223372036854775807
  BIT SIZE: 64

Logical Variables
  KIND: 4
  BIT SIZE: 32
 

 OPENED freyberg6.dis
 FILE TYPE:DIS6                   UNIT 1005   STATUS:OLD                 
 FORMAT:FORMATTED              ACCESS:SEQUENTIAL          
 ACTION:READ                


 OPENED freyberg6.ic
 FILE TYPE:IC6                    UNIT 1006   STATUS:OLD                 
 FORMAT:FORMATTED              ACCESS:SEQUENTIAL          
 ACTION:READ                


 OPENED freyberg6.npf
 FILE TYPE:NPF6                   UNIT 1007   STATUS:OLD                 
 FORMAT:FORMATTED              ACCESS:SEQUENTIAL          
 ACTION:READ                


 OPENED freyberg6.sto
 FILE TYPE:STO6                   UNIT 1008   STATUS:OLD                 
 FORMAT:FORMATTED              ACCESS:SEQUENTIAL          
 ACTION:READ                


 OPENED freyberg6.oc
 FILE TYPE:OC6                    UNIT 1009   STATUS:OLD                 
 FORMAT:FORMATTED              ACCESS:SEQUENTIAL          
 ACTION:READ                


 OPENED freyberg6.wel
 FILE TYPE:WEL6                   UNIT 1010   STATUS:OLD                 
 FORMAT:FORMATTED              ACCESS:SEQUENTIAL          
 ACTION:READ                


 OPENED freyberg6.rch
 FILE TYPE:RCH6                   UNIT 1011   STATUS:OLD                 
 FORMAT:FORMATTED              ACCESS:SEQUENTIAL          
 ACTION:READ                


 OPENED freyberg6.ghb
 FILE TYPE:GHB6                   UNIT 1012   STATUS:OLD                 
 FORMAT:FORMATTED              ACCESS:SEQUENTIAL          
 ACTION:READ                


 OPENED freyberg6.sfr
 FILE TYPE:SFR6                   UNIT 1013   STATUS:OLD                 
 FORMAT:FORMATTED              ACCESS:SEQUENTIAL          
 ACTION:READ                


 OPENED freyberg6.obs
 FILE TYPE:OBS6                   UNIT 1014   STATUS:OLD                 
 FORMAT:FORMATTED              ACCESS:SEQUENTIAL          
 ACTION:READ                

 NAMEFILE OPTIONS:
    NEWTON-RAPHSON method enabled for the model.

 DIS -- STRUCTURED GRID DISCRETIZATION PACKAGE, VERSION 2 : 3/27/2014 - INPUT READ FROM UNIT 1005


 # File generated by Flopy version 3.8.2 on 06/03/2025 at 11:41:07.
 PROCESSING DISCRETIZATION OPTIONS
    MODEL LENGTH UNIT IS METERS
 END OF DISCRETIZATION OPTIONS
 PROCESSING DISCRETIZATION DIMENSIONS
    NLAY =       1
    NROW =      40
    NCOL =      20
 END OF DISCRETIZATION DIMENSIONS
 PROCESSING GRIDDATA

 OPENED freyberg6.dis_delr.txt
 FILE TYPE:OPEN/CLOSE   UNIT 1016   STATUS:OLD                 
 FORMAT:FORMATTED              ACCESS:SEQUENTIAL          
 ACTION:READ                


 OPENED freyberg6.dis_delc.txt
 FILE TYPE:OPEN/CLOSE   UNIT 1017   STATUS:OLD                 
 FORMAT:FORMATTED              ACCESS:SEQUENTIAL          
 ACTION:READ                


 OPENED freyberg6.dis_top.txt
 FILE TYPE:OPEN/CLOSE   UNIT 1018   STATUS:OLD                 
 FORMAT:FORMATTED              ACCESS:SEQUENTIAL          
 ACTION:READ                


 OPENED freyberg6.dis_botm_layer1.txt
 FILE TYPE:OPEN/CLOSE   UNIT 1019   STATUS:OLD                 
 FORMAT:FORMATTED              ACCESS:SEQUENTIAL          
 ACTION:READ                


 OPENED freyberg6.dis_idomain_layer1.txt
 FILE TYPE:OPEN/CLOSE   UNIT 1020   STATUS:OLD                 
 FORMAT:FORMATTED              ACCESS:SEQUENTIAL          
 ACTION:READ                

 END PROCESSING GRIDDATA

 THE SPECIFIED IDOMAIN RESULTS IN A REDUCED NUMBER OF CELLS.
 NUMBER OF USER NODES: 800
 NUMBER OF NODES IN SOLUTION: 706



 NPF -- NODE PROPERTY FLOW PACKAGE, VERSION 1, 3/30/2015 INPUT READ FROM UNIT 1007


 # File generated by Flopy version 3.8.2 on 06/03/2025 at 11:41:07.
 PROCESSING NPF OPTIONS
    CELL-BY-CELL FLOW INFORMATION WILL BE SAVED TO BINARY FILE WHENEVER ICBCFL IS NOT ZERO.
 END OF NPF OPTIONS

 WEL   -- WEL PACKAGE, VERSION 8, 2/22/2014 INPUT READ FROM UNIT 1010
 # File generated by Flopy version 3.8.2 on 06/03/2025 at 11:41:07.

 PROCESSING WEL OPTIONS
    LISTS OF WEL CELLS WILL BE PRINTED.
    WEL FLOWS WILL BE PRINTED TO LISTING FILE.
    FLOWS WILL BE SAVED TO BUDGET FILE SPECIFIED IN OUTPUT CONTROL
 END OF WEL OPTIONS

 PROCESSING WEL DIMENSIONS
    MAXBOUND =       7
 END OF WEL DIMENSIONS

 GHB   -- GHB PACKAGE, VERSION 8, 2/22/2014 INPUT READ FROM UNIT 1012
 # File generated by Flopy version 3.8.2 on 06/03/2025 at 11:41:07.

 PROCESSING GHB OPTIONS
    LISTS OF GHB CELLS WILL BE PRINTED.
    GHB FLOWS WILL BE PRINTED TO LISTING FILE.
    FLOWS WILL BE SAVED TO BUDGET FILE SPECIFIED IN OUTPUT CONTROL
 END OF GHB OPTIONS

 PROCESSING GHB DIMENSIONS
    MAXBOUND =      30
 END OF GHB DIMENSIONS

 RCH   -- RCH PACKAGE, VERSION 8, 2/22/2014 INPUT READ FROM UNIT 1011
 # File generated by Flopy version 3.8.2 on 06/03/2025 at 11:41:07.

 PROCESSING RCH OPTIONS
    RECHARGE INPUT WILL BE READ AS ARRAY(S).
    FLOWS WILL BE SAVED TO BUDGET FILE SPECIFIED IN OUTPUT CONTROL
 END OF RCHA OPTIONS

 SFR   -- SFR PACKAGE, VERSION 8, 2/22/2014 INPUT READ FROM UNIT 1013
 # File generated by Flopy version 3.8.2 on 06/03/2025 at 11:41:07.

 PROCESSING SFR OPTIONS
    SFR BOUNDARIES HAVE NAMES IN LAST COLUMN.
    LISTS OF SFR CELLS WILL BE PRINTED.
    FLOWS WILL BE SAVED TO BUDGET FILE SPECIFIED IN OUTPUT CONTROL

 OPENED sfr.obs
 FILE TYPE:OBS   UNIT 1021   STATUS:OLD                 
 FORMAT:FORMATTED              ACCESS:SEQUENTIAL          
 ACTION:READ                

    MAXIMUM DEPTH CHANGE VALUE (.1000000000000000E-03) SPECIFIED.
    UNIT CONVERSION VALUE (86400.00000000000) SPECIFIED.
 END OF SFR OPTIONS

 PROCESSING SFR DIMENSIONS
    NREACHES = 40
 END OF SFR DIMENSIONS

 OPENED freyberg6.sfr_packagedata.txt
 FILE TYPE:OPEN/CLOSE   UNIT 1022   STATUS:OLD                 
 FORMAT:FORMATTED              ACCESS:SEQUENTIAL          
 ACTION:READ                


 PROCESSING SFR PACKAGEDATA
 END OF SFR PACKAGEDATA

 OPENED freyberg6.sfr_connectiondata.txt
 FILE TYPE:OPEN/CLOSE   UNIT 1023   STATUS:OLD                 
 FORMAT:FORMATTED              ACCESS:SEQUENTIAL          
 ACTION:READ                


 PROCESSING SFR CONNECTIONDATA
 END OF SFR CONNECTIONDATA

 IC -- INITIAL CONDITIONS PACKAGE, VERSION 8, 3/28/2015 INPUT READ FROM UNIT 1006
 # File generated by Flopy version 3.8.2 on 06/03/2025 at 11:41:07.
 PROCESSING IC OPTIONS
 END OF IC OPTIONS
 PROCESSING GRIDDATA

 OPENED freyberg6.ic_strt_layer1.txt
 FILE TYPE:OPEN/CLOSE   UNIT 1024   STATUS:OLD                 
 FORMAT:FORMATTED              ACCESS:SEQUENTIAL          
 ACTION:READ                

 END PROCESSING GRIDDATA
 PROCESSING GRIDDATA

 OPENED freyberg6.npf_icelltype_layer1.txt
 FILE TYPE:OPEN/CLOSE   UNIT 1025   STATUS:OLD                 
 FORMAT:FORMATTED              ACCESS:SEQUENTIAL          
 ACTION:READ                


 OPENED freyberg6.npf_k_layer1.txt
 FILE TYPE:OPEN/CLOSE   UNIT 1026   STATUS:OLD                 
 FORMAT:FORMATTED              ACCESS:SEQUENTIAL          
 ACTION:READ                


 OPENED freyberg6.npf_k33_layer1.txt
 FILE TYPE:OPEN/CLOSE   UNIT 1027   STATUS:OLD                 
 FORMAT:FORMATTED              ACCESS:SEQUENTIAL          
 ACTION:READ                

 K22 not provided.  Assuming K22 = K.
 END PROCESSING GRIDDATA

 STO -- STORAGE PACKAGE, VERSION 1, 5/19/2014 INPUT READ FROM UNIT 1008


 # File generated by Flopy version 3.8.2 on 06/03/2025 at 11:41:07.
 PROCESSING STORAGE OPTIONS
 END OF STORAGE OPTIONS
 PROCESSING GRIDDATA

 OPENED freyberg6.sto_iconvert_layer1.txt
 FILE TYPE:OPEN/CLOSE   UNIT 1028   STATUS:OLD                 
 FORMAT:FORMATTED              ACCESS:SEQUENTIAL          
 ACTION:READ                


 OPENED freyberg6.sto_ss_layer1.txt
 FILE TYPE:OPEN/CLOSE   UNIT 1029   STATUS:OLD                 
 FORMAT:FORMATTED              ACCESS:SEQUENTIAL          
 ACTION:READ                


 OPENED freyberg6.sto_sy_layer1.txt
 FILE TYPE:OPEN/CLOSE   UNIT 1030   STATUS:OLD                 
 FORMAT:FORMATTED              ACCESS:SEQUENTIAL          
 ACTION:READ                

 END PROCESSING GRIDDATA

The observation utility is active for "FREYBERG6"
 # File generated by Flopy version 3.8.2 on 06/03/2025 at 11:41:07.

Processing observation options:

Text output number of digits of precision set to: 10
The PRINT_INPUT option has been specified.


 OBSERVATIONS READ FROM FILE "freyberg6.obs"
 ----------------------------------------------------------------------------------------------------------------------------------------------------------------------------------------------------------------------------
 NAME                                     TYPE                                       TIME         LOCATION DATA                              OUTPUT FILENAME                                                                 
 ----------------------------------------------------------------------------------------------------------------------------------------------------------------------------------------------------------------------------
 TRGW-0-2-15                              CONTINUOUS  HEAD                           ALL TIMES    "  1 3 16"                                 heads.csv                                                                       
 TRGW-0-2-9                               CONTINUOUS  HEAD                           ALL TIMES    "  1 3 10"                                 heads.csv                                                                       
 TRGW-0-3-8                               CONTINUOUS  HEAD                           ALL TIMES    "  1 4 9"                                  heads.csv                                                                       
 TRGW-0-9-1                               CONTINUOUS  HEAD                           ALL TIMES    "  1 10 2"                                 heads.csv                                                                       
 TRGW-0-13-10                             CONTINUOUS  HEAD                           ALL TIMES    "  1 14 11"                                heads.csv                                                                       
 TRGW-0-15-16                             CONTINUOUS  HEAD                           ALL TIMES    "  1 16 17"                                heads.csv                                                                       
 TRGW-0-21-10                             CONTINUOUS  HEAD                           ALL TIMES    "  1 22 11"                                heads.csv                                                                       
 TRGW-0-22-15                             CONTINUOUS  HEAD                           ALL TIMES    "  1 23 16"                                heads.csv                                                                       
 TRGW-0-24-4                              CONTINUOUS  HEAD                           ALL TIMES    "  1 25 5"                                 heads.csv                                                                       
 TRGW-0-26-6                              CONTINUOUS  HEAD                           ALL TIMES    "  1 27 7"                                 heads.csv                                                                       
 TRGW-0-29-15                             CONTINUOUS  HEAD                           ALL TIMES    "  1 30 16"                                heads.csv                                                                       
 TRGW-0-33-7                              CONTINUOUS  HEAD                           ALL TIMES    "  1 34 8"                                 heads.csv                                                                       
 TRGW-0-34-10                             CONTINUOUS  HEAD                           ALL TIMES    "  1 35 11"                                heads.csv                                                                       
 ----------------------------------------------------------------------------------------------------------------------------------------------------------------------------------------------------------------------------


    BINARY GRID INFORMATION WILL BE WRITTEN TO:
      UNIT NUMBER: 1032
      FILE NAME: E:\15_REPOS\00_BETAMI\97_GMDSI\part2_01b_OUT\freyberg6_template\freyberg6.dis.grb

 OPENED E:\15_REPOS\00_BETAMI\97_GMDSI\part2_01b_OUT\freyberg6_template\freyberg6.dis.grb
 FILE TYPE:DATA(BINARY)   UNIT 1032   STATUS:REPLACE             
 FORMAT:UNFORMATTED            ACCESS:STREAM              
 ACTION:READWRITE           

      THE LAST TIME STEP WILL BE PRINTED
      THE LAST TIME STEP WILL BE PRINTED
 # File generated by Flopy version 3.8.2 on 06/03/2025 at 11:41:07.

 PROCESSING OC OPTIONS

    BUDGET INFORMATION WILL BE WRITTEN TO:
      UNIT NUMBER: 1033
      FILE NAME: freyberg6_freyberg.cbc

 OPENED freyberg6_freyberg.cbc
 FILE TYPE:DATA(BINARY)   UNIT 1033   STATUS:REPLACE             
 FORMAT:UNFORMATTED            ACCESS:STREAM              
 ACTION:READWRITE           

    HEAD INFORMATION WILL BE WRITTEN TO:
      UNIT NUMBER: 1034
      FILE NAME: freyberg6_freyberg.hds

 OPENED freyberg6_freyberg.hds
 FILE TYPE:DATA(BINARY)   UNIT 1034   STATUS:REPLACE             
 FORMAT:UNFORMATTED            ACCESS:STREAM              
 ACTION:READWRITE           

 END OF OC OPTIONS

The observation utility is active for "SFR_1"
 # File generated by Flopy version 3.8.2 on 06/03/2025 at 11:41:07.

Processing observation options:



 SFR PACKAGE (SFR_1) STATIC REACH DATA
 ---------------------------------------------------------------------------------------------------------------------------------------
                                                                                                                              UPSTREAM  
   NUMBER   CELLID                  LENGTH       WIDTH        SLOPE         TOP       THICKNESS        HK       ROUGHNESS     FRACTION  
 ---------------------------------------------------------------------------------------------------------------------------------------
     1      (1,1,16)              250.00       5.0000       5.00000E-05  34.000       1.0000       0.15959      3.00000E-02  1.0000     
     2      (1,2,16)              250.00       5.0000       5.00000E-05  33.987       1.0000       0.15262      3.00000E-02  1.0000     
     3      (1,3,16)              250.00       5.0000       5.00000E-05  33.974       1.0000       0.23193      3.00000E-02  1.0000     
     4      (1,4,16)              250.00       5.0000       5.00000E-05  33.962       1.0000       9.93082E-02  3.00000E-02  1.0000     
     5      (1,5,16)              250.00       5.0000       5.00000E-05  33.949       1.0000       7.79298E-02  3.00000E-02  1.0000     
     6      (1,6,16)              250.00       5.0000       5.00000E-05  33.936       1.0000       0.11559      3.00000E-02  1.0000     
     7      (1,7,16)              250.00       5.0000       5.00000E-05  33.923       1.0000       8.36892E-02  3.00000E-02  1.0000     
     8      (1,8,16)              250.00       5.0000       5.00000E-05  33.910       1.0000       9.86493E-02  3.00000E-02  1.0000     
     9      (1,9,16)              250.00       5.0000       5.00000E-05  33.897       1.0000       0.14116      3.00000E-02  1.0000     
     10     (1,10,16)             250.00       5.0000       5.00000E-05  33.885       1.0000       0.14446      3.00000E-02  1.0000     
     11     (1,11,16)             250.00       5.0000       5.00000E-05  33.872       1.0000       5.93722E-02  3.00000E-02  1.0000     
     12     (1,12,16)             250.00       5.0000       5.00000E-05  33.859       1.0000       6.42766E-02  3.00000E-02  1.0000     
     13     (1,13,16)             250.00       5.0000       5.00000E-05  33.846       1.0000       3.00473E-02  3.00000E-02  1.0000     
     14     (1,14,16)             250.00       5.0000       5.00000E-05  33.833       1.0000       2.18116E-02  3.00000E-02  1.0000     
     15     (1,15,16)             250.00       5.0000       5.00000E-05  33.821       1.0000       1.59000E-02  3.00000E-02  1.0000     
     16     (1,16,16)             250.00       5.0000       5.00000E-05  33.808       1.0000       2.44374E-02  3.00000E-02  1.0000     
     17     (1,17,16)             250.00       5.0000       5.00000E-05  33.795       1.0000       4.24199E-02  3.00000E-02  1.0000     
     18     (1,18,16)             250.00       5.0000       5.00000E-05  33.782       1.0000       6.31178E-02  3.00000E-02  1.0000     
     19     (1,19,16)             250.00       5.0000       5.00000E-05  33.769       1.0000       7.85479E-02  3.00000E-02  1.0000     
     20     (1,20,16)             250.00       5.0000       5.00000E-05  33.756       1.0000       0.17566      3.00000E-02  1.0000     
     21     (1,21,16)             250.00       5.0000       5.00000E-05  33.744       1.0000       0.24051      3.00000E-02  1.0000     
     22     (1,22,16)             250.00       5.0000       5.00000E-05  33.731       1.0000       0.12107      3.00000E-02  1.0000     
     23     (1,23,16)             250.00       5.0000       5.00000E-05  33.718       1.0000       0.16915      3.00000E-02  1.0000     
     24     (1,24,16)             250.00       5.0000       5.00000E-05  33.705       1.0000       0.17767      3.00000E-02  1.0000     
     25     (1,25,16)             250.00       5.0000       5.00000E-05  33.692       1.0000       0.33263      3.00000E-02  1.0000     
     26     (1,26,16)             250.00       5.0000       5.00000E-05  33.679       1.0000       0.24694      3.00000E-02  1.0000     
     27     (1,27,16)             250.00       5.0000       5.00000E-05  33.667       1.0000       0.17109      3.00000E-02  1.0000     
     28     (1,28,16)             250.00       5.0000       5.00000E-05  33.654       1.0000       0.24624      3.00000E-02  1.0000     
     29     (1,29,16)             250.00       5.0000       5.00000E-05  33.641       1.0000       0.27775      3.00000E-02  1.0000     
     30     (1,30,16)             250.00       5.0000       5.00000E-05  33.628       1.0000       0.22203      3.00000E-02  1.0000     
     31     (1,31,16)             250.00       5.0000       5.00000E-05  33.615       1.0000       0.13766      3.00000E-02  1.0000     
     32     (1,32,16)             250.00       5.0000       5.00000E-05  33.603       1.0000       0.15343      3.00000E-02  1.0000     
     33     (1,33,16)             250.00       5.0000       5.00000E-05  33.590       1.0000       0.19132      3.00000E-02  1.0000     
     34     (1,34,16)             250.00       5.0000       5.00000E-05  33.577       1.0000       0.14314      3.00000E-02  1.0000     
     35     (1,35,16)             250.00       5.0000       5.00000E-05  33.564       1.0000       0.25541      3.00000E-02  1.0000     
     36     (1,36,16)             250.00       5.0000       5.00000E-05  33.551       1.0000       0.17121      3.00000E-02  1.0000     
     37     (1,37,16)             250.00       5.0000       5.00000E-05  33.538       1.0000       0.13289      3.00000E-02  1.0000     
     38     (1,38,16)             250.00       5.0000       5.00000E-05  33.526       1.0000       9.35073E-02  3.00000E-02  1.0000     
     39     (1,39,16)             250.00       5.0000       5.00000E-05  33.513       1.0000       8.25035E-02  3.00000E-02  1.0000     
     40     (1,40,16)             250.00       5.0000       5.00000E-05  33.510       1.0000       0.12477      3.00000E-02  1.0000     
 ---------------------------------------------------------------------------------------------------------------------------------------



 SFR PACKAGE (SFR_1) STATIC REACH CONNECTION DATA
 --------------------------------
   REACH      CONN 1     CONN 2  
 --------------------------------
     1          2                
     2          1          3     
     3          2          4     
     4          3          5     
     5          4          6     
     6          5          7     
     7          6          8     
     8          7          9     
     9          8          10    
     10         9          11    
     11         10         12    
     12         11         13    
     13         12         14    
     14         13         15    
     15         14         16    
     16         15         17    
     17         16         18    
     18         17         19    
     19         18         20    
     20         19         21    
     21         20         22    
     22         21         23    
     23         22         24    
     24         23         25    
     25         24         26    
     26         25         27    
     27         26         28    
     28         27         29    
     29         28         30    
     30         29         31    
     31         30         32    
     32         31         33    
     33         32         34    
     34         33         35    
     35         34         36    
     36         35         37    
     37         36         38    
     38         37         39    
     39         38         40    
     40         39               
 --------------------------------



 SFR PACKAGE (SFR_1) STATIC UPSTREAM REACH CONNECTION DATA
 ---------------------
             UPSTREAM 
   REACH      CONN 1  
 ---------------------
     1                
     2          1     
     3          2     
     4          3     
     5          4     
     6          5     
     7          6     
     8          7     
     9          8     
     10         9     
     11         10    
     12         11    
     13         12    
     14         13    
     15         14    
     16         15    
     17         16    
     18         17    
     19         18    
     20         19    
     21         20    
     22         21    
     23         22    
     24         23    
     25         24    
     26         25    
     27         26    
     28         27    
     29         28    
     30         29    
     31         30    
     32         31    
     33         32    
     34         33    
     35         34    
     36         35    
     37         36    
     38         37    
     39         38    
     40         39    
 ---------------------



 SFR PACKAGE (SFR_1) STATIC DOWNSTREAM REACH CONNECTION DATA
 ---------------------
            DOWNSTREAM
   REACH      CONN 1  
 ---------------------
     1          2     
     2          3     
     3          4     
     4          5     
     5          6     
     6          7     
     7          8     
     8          9     
     9          10    
     10         11    
     11         12    
     12         13    
     13         14    
     14         15    
     15         16    
     16         17    
     17         18    
     18         19    
     19         20    
     20         21    
     21         22    
     22         23    
     23         24    
     24         25    
     25         26    
     26         27    
     27         28    
     28         29    
     29         30    
     30         31    
     31         32    
     32         33    
     33         34    
     34         35    
     35         36    
     36         37    
     37         38    
     38         39    
     39         40    
     40               
 ---------------------



start timestep kper="1" kstp="1" mode="normal"


 BEGIN READING OUTPUT CONTROL FOR STRESS PERIOD 1
      THE LAST TIME STEP WILL BE SAVED
      THE LAST TIME STEP WILL BE SAVED
      THE LAST TIME STEP WILL BE PRINTED

 END READING OUTPUT CONTROL FOR STRESS PERIOD 1


 PROCESSING STORAGE PERIOD DATA
 END PROCESSING STORAGE PERIOD DATA


 STRESS PERIOD 1 IS TRANSIENT


 OPENED freyberg6.wel_stress_period_data_1.txt
 FILE TYPE:OPEN/CLOSE   UNIT 1036   STATUS:OLD                 
 FORMAT:FORMATTED              ACCESS:SEQUENTIAL          
 ACTION:READ                

 ---------------------------------------------------
  WEL NO.    LAYER    ROW     COL     STRESS RATE   
 ---------------------------------------------------
     1         1      10      17    -231.295403     
     2         1      12      14    -133.347147     
     3         1      21      15    -112.258967     
     4         1      27      11    -173.263304     
     5         1      30       7    -123.747140     
     6         1      35      13    -168.043462     
     7         1      25       5     0.00000000     
 ---------------------------------------------------



 OPENED freyberg6.ghb_stress_period_data_1.txt
 FILE TYPE:OPEN/CLOSE   UNIT 1037   STATUS:OLD                 
 FORMAT:FORMATTED              ACCESS:SEQUENTIAL          
 ACTION:READ                

 --------------------------------------------------------------------
  GHB NO.    LAYER    ROW     COL        STAGE         CONDUCTANCE   
 --------------------------------------------------------------------
     1         1      40       6     32.6955440       86.4397074     
     2         1      40       7     33.1151367       65.3195794     
     3         1      40       8     33.2215430       100.000000     
     4         1      40       9     33.1280494       100.000000     
     5         1      40      10     33.3913111       100.000000     
     6         1      40      11     32.5602123       84.5196848     
     7         1      40      12     32.5000000       56.1349904     
     8         1      40      13     32.5000000       100.000000     
     9         1      40      14     32.5946919       100.000000     
     10        1      40      15     32.5000000       77.1053083     
 --------------------------------------------------------------------



 OPENED freyberg6.rch_recharge_1.txt
 FILE TYPE:OPEN/CLOSE   UNIT 1038   STATUS:OLD                 
 FORMAT:FORMATTED              ACCESS:SEQUENTIAL          
 ACTION:READ                


 OPENED freyberg6.sfr_perioddata_1.txt
 FILE TYPE:OPEN/CLOSE   UNIT 1039   STATUS:OLD                 
 FORMAT:FORMATTED              ACCESS:SEQUENTIAL          
 ACTION:READ                


 SFR PACKAGE (SFR_1) DATA FOR PERIOD      1
 ---------------------------------------------------------------
   NUMBER   KEYWORD                  VALUE 1         VALUE 2    
 ---------------------------------------------------------------
     1      INFLOW               218.30347358481                
 ---------------------------------------------------------------



 SFR PACKAGE (SFR_1) CONNECTED REACH UPSTREAM FRACTION DATA
 ----------------------------------
            DOWNSTREAM             
   REACH     REACH 1    FRACTION 1 
 ----------------------------------
     1          2       1.0000     
     2          3       1.0000     
     3          4       1.0000     
     4          5       1.0000     
     5          6       1.0000     
     6          7       1.0000     
     7          8       1.0000     
     8          9       1.0000     
     9          10      1.0000     
     10         11      1.0000     
     11         12      1.0000     
     12         13      1.0000     
     13         14      1.0000     
     14         15      1.0000     
     15         16      1.0000     
     16         17      1.0000     
     17         18      1.0000     
     18         19      1.0000     
     19         20      1.0000     
     20         21      1.0000     
     21         22      1.0000     
     22         23      1.0000     
     23         24      1.0000     
     24         25      1.0000     
     25         26      1.0000     
     26         27      1.0000     
     27         28      1.0000     
     28         29      1.0000     
     29         30      1.0000     
     30         31      1.0000     
     31         32      1.0000     
     32         33      1.0000     
     33         34      1.0000     
     34         35      1.0000     
     35         36      1.0000     
     36         37      1.0000     
     37         38      1.0000     
     38         39      1.0000     
     39         40      1.0000     
     40                            
 ----------------------------------


 UBDSV1 SAVING     FLOW-JA-FACE ON UNIT   1033 AT TIME STEP      1, STRESS PERIOD      1
 UBDSV06 SAVING              WEL IN MODEL FREYBERG6        PACKAGE FREYBERG6       CONNECTED TO MODEL FREYBERG6        PACKAGE WEL              ON UNIT   1033 AT TIME STEP      1, STRESS PERIOD      1
 UBDSV06 SAVING              GHB IN MODEL FREYBERG6        PACKAGE FREYBERG6       CONNECTED TO MODEL FREYBERG6        PACKAGE GHB              ON UNIT   1033 AT TIME STEP      1, STRESS PERIOD      1
 UBDSV06 SAVING             RCHA IN MODEL FREYBERG6        PACKAGE FREYBERG6       CONNECTED TO MODEL FREYBERG6        PACKAGE RCH              ON UNIT   1033 AT TIME STEP      1, STRESS PERIOD      1
 UBDSV06 SAVING              SFR IN MODEL FREYBERG6        PACKAGE FREYBERG6       CONNECTED TO MODEL FREYBERG6        PACKAGE SFR_1            ON UNIT   1033 AT TIME STEP      1, STRESS PERIOD      1

 WEL PACKAGE (WEL) FLOW RATES   PERIOD      1   STEP        1
 -----------------------------------------------
   NUMBER   CELLID                    RATE      
 -----------------------------------------------
     1      (1,10,17)            -231.29540     
     2      (1,12,14)            -133.34715     
     3      (1,21,15)            -112.25897     
     4      (1,27,11)            -173.26330     
     5      (1,30,7)             -123.74714     
     6      (1,35,13)            -168.04346     
     7      (1,25,5)              0.0000000     
 -----------------------------------------------




 GHB PACKAGE (GHB) FLOW RATES   PERIOD      1   STEP        1
 -----------------------------------------------
   NUMBER   CELLID                    RATE      
 -----------------------------------------------
     1      (1,40,6)             -74.183875     
     2      (1,40,7)             -33.329451     
     3      (1,40,8)             -40.557563     
     4      (1,40,9)             -47.316552     
     5      (1,40,10)            -19.713914     
     6      (1,40,11)            -81.880087     
     7      (1,40,12)            -54.375097     
     8      (1,40,13)            -85.429384     
     9      (1,40,14)            -71.408194     
     10     (1,40,15)            -66.566942     
 -----------------------------------------------




 HEAD WILL BE SAVED ON UNIT 1034 AT END OF TIME STEP    1, STRESS PERIOD    1


  SFR_1 BUDGET FOR ENTIRE MODEL AT END OF TIME STEP    1, STRESS PERIOD   1
  ------------------------------------------------------------------------------

     CUMULATIVE SFR_1      L**3       RATES FOR THIS TIME STEP      L**3/T
     ------------------                 ------------------------

           IN:                                      IN:
           ---                                      ---
                 GWF =     5207164.3139                   GWF =        1425.6439
            RAINFALL =           0.0000              RAINFALL =           0.0000
         EVAPORATION =           0.0000           EVAPORATION =           0.0000
              RUNOFF =           0.0000                RUNOFF =           0.0000
          EXT-INFLOW =      797353.4373            EXT-INFLOW =         218.3035
         EXT-OUTFLOW =           0.0000           EXT-OUTFLOW =           0.0000
             STORAGE =           0.0000               STORAGE =           0.0000

            TOTAL IN =     6004517.7512              TOTAL IN =        1643.9474

          OUT:                                     OUT:
          ----                                     ----
                 GWF =       60166.5772                   GWF =          16.4727
            RAINFALL =           0.0000              RAINFALL =           0.0000
         EVAPORATION =           0.0000           EVAPORATION =           0.0000
              RUNOFF =           0.0000                RUNOFF =           0.0000
          EXT-INFLOW =           0.0000            EXT-INFLOW =           0.0000
         EXT-OUTFLOW =     5944351.1740           EXT-OUTFLOW =        1627.4747
             STORAGE =           0.0000               STORAGE =           0.0000

           TOTAL OUT =     6004517.7512             TOTAL OUT =        1643.9474

            IN - OUT =           0.0000              IN - OUT =      -2.2737E-13

 PERCENT DISCREPANCY =           0.00     PERCENT DISCREPANCY =          -0.00



  VOLUME BUDGET FOR ENTIRE MODEL AT END OF TIME STEP    1, STRESS PERIOD   1
  ---------------------------------------------------------------------------------------------------

     CUMULATIVE VOLUME      L**3       RATES FOR THIS TIME STEP      L**3/T          PACKAGE NAME    
     ------------------                 ------------------------                     ----------------

           IN:                                      IN:
           ---                                      ---
              STO-SS =        3547.4816                STO-SS =           0.9712     STORAGE                          
              STO-SY =      618677.3241                STO-SY =         169.3846     STORAGE                          
                 WEL =           0.0000                   WEL =           0.0000     WEL                              
                 GHB =           0.0000                   GHB =           0.0000     GHB                              
                RCHA =    10641915.5399                  RCHA =        2913.5977     RCH                              
                 SFR =       76778.0149                   SFR =          21.0207     SFR_1                            

            TOTAL IN =    11340918.3605              TOTAL IN =        3104.9742

          OUT:                                     OUT:
          ----                                     ----
              STO-SS =        2437.5379                STO-SS =           0.6674     STORAGE                          
              STO-SY =     1096216.7093                STO-SY =         300.1278     STORAGE                          
                 WEL =     3440492.1823                   WEL =         941.9554     WEL                              
                 GHB =     2099314.7657                   GHB =         574.7611     GHB                              
                RCHA =           0.0000                  RCHA =           0.0000     RCH                              
                 SFR =     4715967.8255                   SFR =        1291.1616     SFR_1                            

           TOTAL OUT =    11354429.0207             TOTAL OUT =        3108.6732

            IN - OUT =      -13510.6603              IN - OUT =          -3.6990

 PERCENT DISCREPANCY =          -0.12     PERCENT DISCREPANCY =          -0.12




         TIME SUMMARY AT END OF TIME STEP    1 IN STRESS PERIOD    1
                    SECONDS     MINUTES      HOURS       DAYS        YEARS
                    -----------------------------------------------------------
   TIME STEP LENGTH 3.15576E+08 5.25960E+06  87660.      3652.5      10.000    
 STRESS PERIOD TIME 3.15576E+08 5.25960E+06  87660.      3652.5      10.000    
         TOTAL TIME 3.15576E+08 5.25960E+06  87660.      3652.5      10.000    


end timestep


start timestep kper="2" kstp="1" mode="normal"


 END OF FILE DETECTED IN OUTPUT CONTROL.
 CURRENT OUTPUT CONTROL SETTINGS WILL BE 
 REPEATED UNTIL THE END OF THE SIMULATION.

 OUTPUT CONTROL FOR STRESS PERIOD 2 IS REPEATED USING SETTINGS FROM A PREVIOUS STRESS PERIOD.


 PROCESSING STORAGE PERIOD DATA
 END PROCESSING STORAGE PERIOD DATA


 STRESS PERIOD 2 IS TRANSIENT


 OPENED freyberg6.wel_stress_period_data_2.txt
 FILE TYPE:OPEN/CLOSE   UNIT 1040   STATUS:OLD                 
 FORMAT:FORMATTED              ACCESS:SEQUENTIAL          
 ACTION:READ                

 ---------------------------------------------------
  WEL NO.    LAYER    ROW     COL     STRESS RATE   
 ---------------------------------------------------
     1         1      10      17    -328.607319     
     2         1      12      14    -314.754895     
     3         1      21      15    -271.129625     
     4         1      27      11    -206.512833     
     5         1      30       7    -141.475518     
     6         1      35      13    -515.512908     
     7         1      25       5     0.00000000     
 ---------------------------------------------------



 REUSING GHBS FROM LAST STRESS PERIOD

 OPENED freyberg6.rch_recharge_2.txt
 FILE TYPE:OPEN/CLOSE   UNIT 1041   STATUS:OLD                 
 FORMAT:FORMATTED              ACCESS:SEQUENTIAL          
 ACTION:READ                


 REUSING SFRS FROM LAST STRESS PERIOD
 UBDSV1 SAVING     FLOW-JA-FACE ON UNIT   1033 AT TIME STEP      1, STRESS PERIOD      2
 UBDSV06 SAVING              WEL IN MODEL FREYBERG6        PACKAGE FREYBERG6       CONNECTED TO MODEL FREYBERG6        PACKAGE WEL              ON UNIT   1033 AT TIME STEP      1, STRESS PERIOD      2
 UBDSV06 SAVING              GHB IN MODEL FREYBERG6        PACKAGE FREYBERG6       CONNECTED TO MODEL FREYBERG6        PACKAGE GHB              ON UNIT   1033 AT TIME STEP      1, STRESS PERIOD      2
 UBDSV06 SAVING             RCHA IN MODEL FREYBERG6        PACKAGE FREYBERG6       CONNECTED TO MODEL FREYBERG6        PACKAGE RCH              ON UNIT   1033 AT TIME STEP      1, STRESS PERIOD      2
 UBDSV06 SAVING              SFR IN MODEL FREYBERG6        PACKAGE FREYBERG6       CONNECTED TO MODEL FREYBERG6        PACKAGE SFR_1            ON UNIT   1033 AT TIME STEP      1, STRESS PERIOD      2

 WEL PACKAGE (WEL) FLOW RATES   PERIOD      2   STEP        1
 -----------------------------------------------
   NUMBER   CELLID                    RATE      
 -----------------------------------------------
     1      (1,10,17)            -328.60732     
     2      (1,12,14)            -314.75489     
     3      (1,21,15)            -271.12962     
     4      (1,27,11)            -206.51283     
     5      (1,30,7)             -141.47552     
     6      (1,35,13)            -515.51291     
     7      (1,25,5)              0.0000000     
 -----------------------------------------------




 GHB PACKAGE (GHB) FLOW RATES   PERIOD      2   STEP        1
 -----------------------------------------------
   NUMBER   CELLID                    RATE      
 -----------------------------------------------
     1      (1,40,6)             -72.361625     
     2      (1,40,7)             -31.561399     
     3      (1,40,8)             -37.319130     
     4      (1,40,9)             -43.326539     
     5      (1,40,10)            -14.888389     
     6      (1,40,11)            -77.343547     
     7      (1,40,12)            -51.306287     
     8      (1,40,13)            -80.880844     
     9      (1,40,14)            -67.973090     
     10     (1,40,15)            -64.607474     
 -----------------------------------------------




 HEAD WILL BE SAVED ON UNIT 1034 AT END OF TIME STEP    1, STRESS PERIOD    2


  SFR_1 BUDGET FOR ENTIRE MODEL AT END OF TIME STEP    1, STRESS PERIOD   2
  ------------------------------------------------------------------------------

     CUMULATIVE SFR_1      L**3       RATES FOR THIS TIME STEP      L**3/T
     ------------------                 ------------------------

           IN:                                      IN:
           ---                                      ---
                 GWF =     5241432.1701                   GWF =        1105.4147
            RAINFALL =           0.0000              RAINFALL =           0.0000
         EVAPORATION =           0.0000           EVAPORATION =           0.0000
              RUNOFF =           0.0000                RUNOFF =           0.0000
          EXT-INFLOW =      804120.8449            EXT-INFLOW =         218.3035
         EXT-OUTFLOW =           0.0000           EXT-OUTFLOW =           0.0000
             STORAGE =           0.0000               STORAGE =           0.0000

            TOTAL IN =     6045553.0150              TOTAL IN =        1323.7182

          OUT:                                     OUT:
          ----                                     ----
                 GWF =       60869.1917                   GWF =          22.6650
            RAINFALL =           0.0000              RAINFALL =           0.0000
         EVAPORATION =           0.0000           EVAPORATION =           0.0000
              RUNOFF =           0.0000                RUNOFF =           0.0000
          EXT-INFLOW =           0.0000            EXT-INFLOW =           0.0000
         EXT-OUTFLOW =     5984683.8233           EXT-OUTFLOW =        1301.0532
             STORAGE =           0.0000               STORAGE =           0.0000

           TOTAL OUT =     6045553.0150             TOTAL OUT =        1323.7182

            IN - OUT =           0.0000              IN - OUT =       2.2737E-13

 PERCENT DISCREPANCY =           0.00     PERCENT DISCREPANCY =           0.00



  VOLUME BUDGET FOR ENTIRE MODEL AT END OF TIME STEP    1, STRESS PERIOD   2
  ---------------------------------------------------------------------------------------------------

     CUMULATIVE VOLUME      L**3       RATES FOR THIS TIME STEP      L**3/T          PACKAGE NAME    
     ------------------                 ------------------------                     ----------------

           IN:                                      IN:
           ---                                      ---
              STO-SS =        3607.6495                STO-SS =           1.9409     STORAGE                          
              STO-SY =      641715.4116                STO-SY =         743.1641     STORAGE                          
                 WEL =           0.0000                   WEL =           0.0000     WEL                              
                 GHB =           0.0000                   GHB =           0.0000     GHB                              
                RCHA =    10723861.0284                  RCHA =        2643.4029     RCH                              
                 SFR =       77503.3984                   SFR =          23.3995     SFR_1                            

            TOTAL IN =    11446687.4879              TOTAL IN =        3411.9073

          OUT:                                     OUT:
          ----                                     ----
              STO-SS =        2437.5772                STO-SS =       1.2669E-03     STORAGE                          
              STO-SY =     1096231.8906                STO-SY =           0.4897     STORAGE                          
                 WEL =     3495609.9684                   WEL =        1777.9931     WEL                              
                 GHB =     2116103.3837                   GHB =         541.5683     GHB                              
                RCHA =           0.0000                  RCHA =           0.0000     RCH                              
                 SFR =     4749870.8498                   SFR =        1093.6459     SFR_1                            

           TOTAL OUT =    11460253.6697             TOTAL OUT =        3413.6984

            IN - OUT =      -13566.1818              IN - OUT =          -1.7910

 PERCENT DISCREPANCY =          -0.12     PERCENT DISCREPANCY =          -0.05




         TIME SUMMARY AT END OF TIME STEP    1 IN STRESS PERIOD    2
                    SECONDS     MINUTES      HOURS       DAYS        YEARS
                    -----------------------------------------------------------
   TIME STEP LENGTH 2.67840E+06  44640.      744.00      31.000     8.48734E-02
 STRESS PERIOD TIME 2.67840E+06  44640.      744.00      31.000     8.48734E-02
         TOTAL TIME 3.18254E+08 5.30424E+06  88404.      3683.5      10.085    


end timestep


start timestep kper="3" kstp="1" mode="normal"


 OUTPUT CONTROL FOR STRESS PERIOD 3 IS REPEATED USING SETTINGS FROM A PREVIOUS STRESS PERIOD.


 STRESS PERIOD 3 IS TRANSIENT


 OPENED freyberg6.wel_stress_period_data_3.txt
 FILE TYPE:OPEN/CLOSE   UNIT 1042   STATUS:OLD                 
 FORMAT:FORMATTED              ACCESS:SEQUENTIAL          
 ACTION:READ                

 ---------------------------------------------------
  WEL NO.    LAYER    ROW     COL     STRESS RATE   
 ---------------------------------------------------
     1         1      10      17    -484.314084     
     2         1      12      14    -187.288496     
     3         1      21      15    -455.218225     
     4         1      27      11    -206.642408     
     5         1      30       7    -201.995640     
     6         1      35      13    -434.894521     
     7         1      25       5     0.00000000     
 ---------------------------------------------------



 REUSING GHBS FROM LAST STRESS PERIOD

 OPENED freyberg6.rch_recharge_3.txt
 FILE TYPE:OPEN/CLOSE   UNIT 1043   STATUS:OLD                 
 FORMAT:FORMATTED              ACCESS:SEQUENTIAL          
 ACTION:READ                


 REUSING SFRS FROM LAST STRESS PERIOD
 UBDSV1 SAVING     FLOW-JA-FACE ON UNIT   1033 AT TIME STEP      1, STRESS PERIOD      3
 UBDSV06 SAVING              WEL IN MODEL FREYBERG6        PACKAGE FREYBERG6       CONNECTED TO MODEL FREYBERG6        PACKAGE WEL              ON UNIT   1033 AT TIME STEP      1, STRESS PERIOD      3
 UBDSV06 SAVING              GHB IN MODEL FREYBERG6        PACKAGE FREYBERG6       CONNECTED TO MODEL FREYBERG6        PACKAGE GHB              ON UNIT   1033 AT TIME STEP      1, STRESS PERIOD      3
 UBDSV06 SAVING             RCHA IN MODEL FREYBERG6        PACKAGE FREYBERG6       CONNECTED TO MODEL FREYBERG6        PACKAGE RCH              ON UNIT   1033 AT TIME STEP      1, STRESS PERIOD      3
 UBDSV06 SAVING              SFR IN MODEL FREYBERG6        PACKAGE FREYBERG6       CONNECTED TO MODEL FREYBERG6        PACKAGE SFR_1            ON UNIT   1033 AT TIME STEP      1, STRESS PERIOD      3

 WEL PACKAGE (WEL) FLOW RATES   PERIOD      3   STEP        1
 -----------------------------------------------
   NUMBER   CELLID                    RATE      
 -----------------------------------------------
     1      (1,10,17)            -484.31408     
     2      (1,12,14)            -187.28850     
     3      (1,21,15)            -455.21822     
     4      (1,27,11)            -206.64241     
     5      (1,30,7)             -201.99564     
     6      (1,35,13)            -434.89452     
     7      (1,25,5)              0.0000000     
 -----------------------------------------------




 GHB PACKAGE (GHB) FLOW RATES   PERIOD      3   STEP        1
 -----------------------------------------------
   NUMBER   CELLID                    RATE      
 -----------------------------------------------
     1      (1,40,6)             -81.275296     
     2      (1,40,7)             -38.126060     
     3      (1,40,8)             -46.939134     
     4      (1,40,9)             -52.742339     
     5      (1,40,10)            -24.426960     
     6      (1,40,11)            -85.323151     
     7      (1,40,12)            -56.324766     
     8      (1,40,13)            -88.160002     
     9      (1,40,14)            -73.708266     
     10     (1,40,15)            -68.246479     
 -----------------------------------------------




 HEAD WILL BE SAVED ON UNIT 1034 AT END OF TIME STEP    1, STRESS PERIOD    3


  SFR_1 BUDGET FOR ENTIRE MODEL AT END OF TIME STEP    1, STRESS PERIOD   3
  ------------------------------------------------------------------------------

     CUMULATIVE SFR_1      L**3       RATES FOR THIS TIME STEP      L**3/T
     ------------------                 ------------------------

           IN:                                      IN:
           ---                                      ---
                 GWF =     5278310.0645                   GWF =        1271.6515
            RAINFALL =           0.0000              RAINFALL =           0.0000
         EVAPORATION =           0.0000           EVAPORATION =           0.0000
              RUNOFF =           0.0000                RUNOFF =           0.0000
          EXT-INFLOW =      810451.6457            EXT-INFLOW =         218.3035
         EXT-OUTFLOW =           0.0000           EXT-OUTFLOW =           0.0000
             STORAGE =           0.0000               STORAGE =           0.0000

            TOTAL IN =     6088761.7102              TOTAL IN =        1489.9550

          OUT:                                     OUT:
          ----                                     ----
                 GWF =       61568.7554                   GWF =          24.1229
            RAINFALL =           0.0000              RAINFALL =           0.0000
         EVAPORATION =           0.0000           EVAPORATION =           0.0000
              RUNOFF =           0.0000                RUNOFF =           0.0000
          EXT-INFLOW =           0.0000            EXT-INFLOW =           0.0000
         EXT-OUTFLOW =     6027192.9548           EXT-OUTFLOW =        1465.8321
             STORAGE =           0.0000               STORAGE =           0.0000

           TOTAL OUT =     6088761.7102             TOTAL OUT =        1489.9550

            IN - OUT =      -9.3132E-10              IN - OUT =           0.0000

 PERCENT DISCREPANCY =          -0.00     PERCENT DISCREPANCY =           0.00



  VOLUME BUDGET FOR ENTIRE MODEL AT END OF TIME STEP    1, STRESS PERIOD   3
  ---------------------------------------------------------------------------------------------------

     CUMULATIVE VOLUME      L**3       RATES FOR THIS TIME STEP      L**3/T          PACKAGE NAME    
     ------------------                 ------------------------                     ----------------

           IN:                                      IN:
           ---                                      ---
              STO-SS =        3609.3438                STO-SS =       5.8423E-02     STORAGE                          
              STO-SY =      642387.1398                STO-SY =          23.1630     STORAGE                          
                 WEL =           0.0000                   WEL =           0.0000     WEL                              
                 GHB =           0.0000                   GHB =           0.0000     GHB                              
                RCHA =    10890775.3435                  RCHA =        5755.6660     RCH                              
                 SFR =       78180.0131                   SFR =          23.3315     SFR_1                            

            TOTAL IN =    11614951.8403              TOTAL IN =        5802.2190

          OUT:                                     OUT:
          ----                                     ----
              STO-SS =        2576.7988                STO-SS =           4.8007     STORAGE                          
              STO-SY =     1152220.1452                STO-SY =        1930.6295     STORAGE                          
                 WEL =     3552750.2162                   WEL =        1970.3534     WEL                              
                 GHB =     2133946.2849                   GHB =         615.2725     GHB                              
                RCHA =           0.0000                  RCHA =           0.0000     RCH                              
                 SFR =     4786996.1451                   SFR =        1280.1826     SFR_1                            

           TOTAL OUT =    11628489.5902             TOTAL OUT =        5801.2386

            IN - OUT =      -13537.7499              IN - OUT =           0.9804

 PERCENT DISCREPANCY =          -0.12     PERCENT DISCREPANCY =           0.02




         TIME SUMMARY AT END OF TIME STEP    1 IN STRESS PERIOD    3
                    SECONDS     MINUTES      HOURS       DAYS        YEARS
                    -----------------------------------------------------------
   TIME STEP LENGTH 2.50560E+06  41760.      696.00      29.000     7.93977E-02
 STRESS PERIOD TIME 2.50560E+06  41760.      696.00      29.000     7.93977E-02
         TOTAL TIME 3.20760E+08 5.34600E+06  89100.      3712.5      10.164    


end timestep


start timestep kper="4" kstp="1" mode="normal"


 OUTPUT CONTROL FOR STRESS PERIOD 4 IS REPEATED USING SETTINGS FROM A PREVIOUS STRESS PERIOD.


 STRESS PERIOD 4 IS TRANSIENT


 OPENED freyberg6.wel_stress_period_data_4.txt
 FILE TYPE:OPEN/CLOSE   UNIT 1044   STATUS:OLD                 
 FORMAT:FORMATTED              ACCESS:SEQUENTIAL          
 ACTION:READ                

 ---------------------------------------------------
  WEL NO.    LAYER    ROW     COL     STRESS RATE   
 ---------------------------------------------------
     1         1      10      17    -151.050733     
     2         1      12      14    -353.961106     
     3         1      21      15    -278.698134     
     4         1      27      11    -210.367798     
     5         1      30       7    -374.491379     
     6         1      35      13    -392.474430     
     7         1      25       5     0.00000000     
 ---------------------------------------------------



 REUSING GHBS FROM LAST STRESS PERIOD

 OPENED freyberg6.rch_recharge_4.txt
 FILE TYPE:OPEN/CLOSE   UNIT 1045   STATUS:OLD                 
 FORMAT:FORMATTED              ACCESS:SEQUENTIAL          
 ACTION:READ                


 REUSING SFRS FROM LAST STRESS PERIOD
 UBDSV1 SAVING     FLOW-JA-FACE ON UNIT   1033 AT TIME STEP      1, STRESS PERIOD      4
 UBDSV06 SAVING              WEL IN MODEL FREYBERG6        PACKAGE FREYBERG6       CONNECTED TO MODEL FREYBERG6        PACKAGE WEL              ON UNIT   1033 AT TIME STEP      1, STRESS PERIOD      4
 UBDSV06 SAVING              GHB IN MODEL FREYBERG6        PACKAGE FREYBERG6       CONNECTED TO MODEL FREYBERG6        PACKAGE GHB              ON UNIT   1033 AT TIME STEP      1, STRESS PERIOD      4
 UBDSV06 SAVING             RCHA IN MODEL FREYBERG6        PACKAGE FREYBERG6       CONNECTED TO MODEL FREYBERG6        PACKAGE RCH              ON UNIT   1033 AT TIME STEP      1, STRESS PERIOD      4
 UBDSV06 SAVING              SFR IN MODEL FREYBERG6        PACKAGE FREYBERG6       CONNECTED TO MODEL FREYBERG6        PACKAGE SFR_1            ON UNIT   1033 AT TIME STEP      1, STRESS PERIOD      4

 WEL PACKAGE (WEL) FLOW RATES   PERIOD      4   STEP        1
 -----------------------------------------------
   NUMBER   CELLID                    RATE      
 -----------------------------------------------
     1      (1,10,17)            -151.05073     
     2      (1,12,14)            -353.96111     
     3      (1,21,15)            -278.69813     
     4      (1,27,11)            -210.36780     
     5      (1,30,7)             -374.49138     
     6      (1,35,13)            -392.47443     
     7      (1,25,5)              0.0000000     
 -----------------------------------------------




 GHB PACKAGE (GHB) FLOW RATES   PERIOD      4   STEP        1
 -----------------------------------------------
   NUMBER   CELLID                    RATE      
 -----------------------------------------------
     1      (1,40,6)             -86.441954     
     2      (1,40,7)             -42.073868     
     3      (1,40,8)             -52.700554     
     4      (1,40,9)             -58.409013     
     5      (1,40,10)            -30.143586     
     6      (1,40,11)            -90.162255     
     7      (1,40,12)            -59.379975     
     8      (1,40,13)            -92.775635     
     9      (1,40,14)            -77.440122     
     10     (1,40,15)            -70.693064     
 -----------------------------------------------




 HEAD WILL BE SAVED ON UNIT 1034 AT END OF TIME STEP    1, STRESS PERIOD    4


  SFR_1 BUDGET FOR ENTIRE MODEL AT END OF TIME STEP    1, STRESS PERIOD   4
  ------------------------------------------------------------------------------

     CUMULATIVE SFR_1      L**3       RATES FOR THIS TIME STEP      L**3/T
     ------------------                 ------------------------

           IN:                                      IN:
           ---                                      ---
                 GWF =     5325282.9677                   GWF =        1515.2549
            RAINFALL =           0.0000              RAINFALL =           0.0000
         EVAPORATION =           0.0000           EVAPORATION =           0.0000
              RUNOFF =           0.0000                RUNOFF =           0.0000
          EXT-INFLOW =      817219.0534            EXT-INFLOW =         218.3035
         EXT-OUTFLOW =           0.0000           EXT-OUTFLOW =           0.0000
             STORAGE =           0.0000               STORAGE =           0.0000

            TOTAL IN =     6142502.0211              TOTAL IN =        1733.5584

          OUT:                                     OUT:
          ----                                     ----
                 GWF =       61908.0797                   GWF =          10.9459
            RAINFALL =           0.0000              RAINFALL =           0.0000
         EVAPORATION =           0.0000           EVAPORATION =           0.0000
              RUNOFF =           0.0000                RUNOFF =           0.0000
          EXT-INFLOW =           0.0000            EXT-INFLOW =           0.0000
         EXT-OUTFLOW =     6080593.9413           EXT-OUTFLOW =        1722.6125
             STORAGE =           0.0000               STORAGE =           0.0000

           TOTAL OUT =     6142502.0211             TOTAL OUT =        1733.5584

            IN - OUT =      -9.3132E-10              IN - OUT =       2.2737E-13

 PERCENT DISCREPANCY =          -0.00     PERCENT DISCREPANCY =           0.00



  VOLUME BUDGET FOR ENTIRE MODEL AT END OF TIME STEP    1, STRESS PERIOD   4
  ---------------------------------------------------------------------------------------------------

     CUMULATIVE VOLUME      L**3       RATES FOR THIS TIME STEP      L**3/T          PACKAGE NAME    
     ------------------                 ------------------------                     ----------------

           IN:                                      IN:
           ---                                      ---
              STO-SS =        3610.6555                STO-SS =       4.2315E-02     STORAGE                          
              STO-SY =      642818.5194                STO-SY =          13.9155     STORAGE                          
                 WEL =           0.0000                   WEL =           0.0000     WEL                              
                 GHB =           0.0000                   GHB =           0.0000     GHB                              
                RCHA =    11060633.2663                  RCHA =        5479.2878     RCH                              
                 SFR =       78502.2262                   SFR =          10.3940     SFR_1                            

            TOTAL IN =    11785564.6674              TOTAL IN =        5503.6396

          OUT:                                     OUT:
          ----                                     ----
              STO-SS =        2690.7819                STO-SS =           3.6769     STORAGE                          
              STO-SY =     1200076.9190                STO-SY =        1543.7669     STORAGE                          
                 WEL =     3607342.5672                   WEL =        1761.0436     WEL                              
                 GHB =     2154413.1057                   GHB =         660.2200     GHB                              
                RCHA =           0.0000                  RCHA =           0.0000     RCH                              
                 SFR =     4834500.9794                   SFR =        1532.4140     SFR_1                            

           TOTAL OUT =    11799024.3531             TOTAL OUT =        5501.1214

            IN - OUT =      -13459.6857              IN - OUT =           2.5182

 PERCENT DISCREPANCY =          -0.11     PERCENT DISCREPANCY =           0.05




         TIME SUMMARY AT END OF TIME STEP    1 IN STRESS PERIOD    4
                    SECONDS     MINUTES      HOURS       DAYS        YEARS
                    -----------------------------------------------------------
   TIME STEP LENGTH 2.67840E+06  44640.      744.00      31.000     8.48734E-02
 STRESS PERIOD TIME 2.67840E+06  44640.      744.00      31.000     8.48734E-02
         TOTAL TIME 3.23438E+08 5.39064E+06  89844.      3743.5      10.249    


end timestep


start timestep kper="5" kstp="1" mode="normal"


 OUTPUT CONTROL FOR STRESS PERIOD 5 IS REPEATED USING SETTINGS FROM A PREVIOUS STRESS PERIOD.


 STRESS PERIOD 5 IS TRANSIENT


 OPENED freyberg6.wel_stress_period_data_5.txt
 FILE TYPE:OPEN/CLOSE   UNIT 1046   STATUS:OLD                 
 FORMAT:FORMATTED              ACCESS:SEQUENTIAL          
 ACTION:READ                

 ---------------------------------------------------
  WEL NO.    LAYER    ROW     COL     STRESS RATE   
 ---------------------------------------------------
     1         1      10      17    -687.066046     
     2         1      12      14    -354.440415     
     3         1      21      15    -563.444281     
     4         1      27      11    -638.370225     
     5         1      30       7    -962.272024     
     6         1      35      13    -313.920258     
     7         1      25       5     0.00000000     
 ---------------------------------------------------



 REUSING GHBS FROM LAST STRESS PERIOD

 OPENED freyberg6.rch_recharge_5.txt
 FILE TYPE:OPEN/CLOSE   UNIT 1047   STATUS:OLD                 
 FORMAT:FORMATTED              ACCESS:SEQUENTIAL          
 ACTION:READ                


 REUSING SFRS FROM LAST STRESS PERIOD
 UBDSV1 SAVING     FLOW-JA-FACE ON UNIT   1033 AT TIME STEP      1, STRESS PERIOD      5
 UBDSV06 SAVING              WEL IN MODEL FREYBERG6        PACKAGE FREYBERG6       CONNECTED TO MODEL FREYBERG6        PACKAGE WEL              ON UNIT   1033 AT TIME STEP      1, STRESS PERIOD      5
 UBDSV06 SAVING              GHB IN MODEL FREYBERG6        PACKAGE FREYBERG6       CONNECTED TO MODEL FREYBERG6        PACKAGE GHB              ON UNIT   1033 AT TIME STEP      1, STRESS PERIOD      5
 UBDSV06 SAVING             RCHA IN MODEL FREYBERG6        PACKAGE FREYBERG6       CONNECTED TO MODEL FREYBERG6        PACKAGE RCH              ON UNIT   1033 AT TIME STEP      1, STRESS PERIOD      5
 UBDSV06 SAVING              SFR IN MODEL FREYBERG6        PACKAGE FREYBERG6       CONNECTED TO MODEL FREYBERG6        PACKAGE SFR_1            ON UNIT   1033 AT TIME STEP      1, STRESS PERIOD      5

 WEL PACKAGE (WEL) FLOW RATES   PERIOD      5   STEP        1
 -----------------------------------------------
   NUMBER   CELLID                    RATE      
 -----------------------------------------------
     1      (1,10,17)            -687.06605     
     2      (1,12,14)            -354.44041     
     3      (1,21,15)            -563.44428     
     4      (1,27,11)            -638.37022     
     5      (1,30,7)             -962.27202     
     6      (1,35,13)            -313.92026     
     7      (1,25,5)              0.0000000     
 -----------------------------------------------




 GHB PACKAGE (GHB) FLOW RATES   PERIOD      5   STEP        1
 -----------------------------------------------
   NUMBER   CELLID                    RATE      
 -----------------------------------------------
     1      (1,40,6)             -96.411564     
     2      (1,40,7)             -49.602691     
     3      (1,40,8)             -63.939478     
     4      (1,40,9)             -69.699966     
     5      (1,40,10)            -41.796355     
     6      (1,40,11)            -100.10481     
     7      (1,40,12)            -65.742424     
     8      (1,40,13)            -102.34341     
     9      (1,40,14)            -85.199506     
     10     (1,40,15)            -75.706440     
 -----------------------------------------------




 HEAD WILL BE SAVED ON UNIT 1034 AT END OF TIME STEP    1, STRESS PERIOD    5


  SFR_1 BUDGET FOR ENTIRE MODEL AT END OF TIME STEP    1, STRESS PERIOD   5
  ------------------------------------------------------------------------------

     CUMULATIVE SFR_1      L**3       RATES FOR THIS TIME STEP      L**3/T
     ------------------                 ------------------------

           IN:                                      IN:
           ---                                      ---
                 GWF =     5374748.7910                   GWF =        1648.8608
            RAINFALL =           0.0000              RAINFALL =           0.0000
         EVAPORATION =           0.0000           EVAPORATION =           0.0000
              RUNOFF =           0.0000                RUNOFF =           0.0000
          EXT-INFLOW =      823768.1576            EXT-INFLOW =         218.3035
         EXT-OUTFLOW =           0.0000           EXT-OUTFLOW =           0.0000
             STORAGE =           0.0000               STORAGE =           0.0000

            TOTAL IN =     6198516.9486              TOTAL IN =        1867.1643

          OUT:                                     OUT:
          ----                                     ----
                 GWF =       62619.4213                   GWF =          23.7114
            RAINFALL =           0.0000              RAINFALL =           0.0000
         EVAPORATION =           0.0000           EVAPORATION =           0.0000
              RUNOFF =           0.0000                RUNOFF =           0.0000
          EXT-INFLOW =           0.0000            EXT-INFLOW =           0.0000
         EXT-OUTFLOW =     6135897.5273           EXT-OUTFLOW =        1843.4529
             STORAGE =           0.0000               STORAGE =           0.0000

           TOTAL OUT =     6198516.9486             TOTAL OUT =        1867.1643

            IN - OUT =           0.0000              IN - OUT =      -2.2737E-13

 PERCENT DISCREPANCY =           0.00     PERCENT DISCREPANCY =          -0.00



  VOLUME BUDGET FOR ENTIRE MODEL AT END OF TIME STEP    1, STRESS PERIOD   5
  ---------------------------------------------------------------------------------------------------

     CUMULATIVE VOLUME      L**3       RATES FOR THIS TIME STEP      L**3/T          PACKAGE NAME    
     ------------------                 ------------------------                     ----------------

           IN:                                      IN:
           ---                                      ---
              STO-SS =        3636.0956                STO-SS =           0.8480     STORAGE                          
              STO-SY =      651766.0033                STO-SY =         298.2495     STORAGE                          
                 WEL =           0.0000                   WEL =           0.0000     WEL                              
                 GHB =           0.0000                   GHB =           0.0000     GHB                              
                RCHA =    11288206.3815                  RCHA =        7585.7705     RCH                              
                 SFR =       79207.6484                   SFR =          23.5141     SFR_1                            

            TOTAL IN =    12022816.1289              TOTAL IN =        7908.3820

          OUT:                                     OUT:
          ----                                     ----
              STO-SS =        2830.8497                STO-SS =           4.6689     STORAGE                          
              STO-SY =     1259614.4486                STO-SY =        1984.5843     STORAGE                          
                 WEL =     3712927.9647                   WEL =        3519.5132     WEL                              
                 GHB =     2176929.5051                   GHB =         750.5466     GHB                              
                RCHA =           0.0000                  RCHA =           0.0000     RCH                              
                 SFR =     4883983.5882                   SFR =        1649.4203     SFR_1                            

           TOTAL OUT =    12036286.3563             TOTAL OUT =        7908.7334

            IN - OUT =      -13470.2274              IN - OUT =          -0.3514

 PERCENT DISCREPANCY =          -0.11     PERCENT DISCREPANCY =          -0.00




         TIME SUMMARY AT END OF TIME STEP    1 IN STRESS PERIOD    5
                    SECONDS     MINUTES      HOURS       DAYS        YEARS
                    -----------------------------------------------------------
   TIME STEP LENGTH 2.59200E+06  43200.      720.00      30.000     8.21355E-02
 STRESS PERIOD TIME 2.59200E+06  43200.      720.00      30.000     8.21355E-02
         TOTAL TIME 3.26030E+08 5.43384E+06  90564.      3773.5      10.331    


end timestep


start timestep kper="6" kstp="1" mode="normal"


 OUTPUT CONTROL FOR STRESS PERIOD 6 IS REPEATED USING SETTINGS FROM A PREVIOUS STRESS PERIOD.


 STRESS PERIOD 6 IS TRANSIENT


 OPENED freyberg6.wel_stress_period_data_6.txt
 FILE TYPE:OPEN/CLOSE   UNIT 1048   STATUS:OLD                 
 FORMAT:FORMATTED              ACCESS:SEQUENTIAL          
 ACTION:READ                

 ---------------------------------------------------
  WEL NO.    LAYER    ROW     COL     STRESS RATE   
 ---------------------------------------------------
     1         1      10      17    -525.388225     
     2         1      12      14    -575.237029     
     3         1      21      15    -322.972439     
     4         1      27      11    -462.985194     
     5         1      30       7    -278.629618     
     6         1      35      13    -774.566043     
     7         1      25       5     0.00000000     
 ---------------------------------------------------



 REUSING GHBS FROM LAST STRESS PERIOD

 OPENED freyberg6.rch_recharge_6.txt
 FILE TYPE:OPEN/CLOSE   UNIT 1049   STATUS:OLD                 
 FORMAT:FORMATTED              ACCESS:SEQUENTIAL          
 ACTION:READ                


 REUSING SFRS FROM LAST STRESS PERIOD
 UBDSV1 SAVING     FLOW-JA-FACE ON UNIT   1033 AT TIME STEP      1, STRESS PERIOD      6
 UBDSV06 SAVING              WEL IN MODEL FREYBERG6        PACKAGE FREYBERG6       CONNECTED TO MODEL FREYBERG6        PACKAGE WEL              ON UNIT   1033 AT TIME STEP      1, STRESS PERIOD      6
 UBDSV06 SAVING              GHB IN MODEL FREYBERG6        PACKAGE FREYBERG6       CONNECTED TO MODEL FREYBERG6        PACKAGE GHB              ON UNIT   1033 AT TIME STEP      1, STRESS PERIOD      6
 UBDSV06 SAVING             RCHA IN MODEL FREYBERG6        PACKAGE FREYBERG6       CONNECTED TO MODEL FREYBERG6        PACKAGE RCH              ON UNIT   1033 AT TIME STEP      1, STRESS PERIOD      6
 UBDSV06 SAVING              SFR IN MODEL FREYBERG6        PACKAGE FREYBERG6       CONNECTED TO MODEL FREYBERG6        PACKAGE SFR_1            ON UNIT   1033 AT TIME STEP      1, STRESS PERIOD      6

 WEL PACKAGE (WEL) FLOW RATES   PERIOD      6   STEP        1
 -----------------------------------------------
   NUMBER   CELLID                    RATE      
 -----------------------------------------------
     1      (1,10,17)            -525.38822     
     2      (1,12,14)            -575.23703     
     3      (1,21,15)            -322.97244     
     4      (1,27,11)            -462.98519     
     5      (1,30,7)             -278.62962     
     6      (1,35,13)            -774.56604     
     7      (1,25,5)              0.0000000     
 -----------------------------------------------




 GHB PACKAGE (GHB) FLOW RATES   PERIOD      6   STEP        1
 -----------------------------------------------
   NUMBER   CELLID                    RATE      
 -----------------------------------------------
     1      (1,40,6)             -89.405148     
     2      (1,40,7)             -44.123990     
     3      (1,40,8)             -54.868573     
     4      (1,40,9)             -59.522150     
     5      (1,40,10)            -30.275680     
     6      (1,40,11)            -89.730796     
     7      (1,40,12)            -58.885513     
     8      (1,40,13)            -92.089640     
     9      (1,40,14)            -77.159391     
     10     (1,40,15)            -70.842569     
 -----------------------------------------------




 HEAD WILL BE SAVED ON UNIT 1034 AT END OF TIME STEP    1, STRESS PERIOD    6


  SFR_1 BUDGET FOR ENTIRE MODEL AT END OF TIME STEP    1, STRESS PERIOD   6
  ------------------------------------------------------------------------------

     CUMULATIVE SFR_1      L**3       RATES FOR THIS TIME STEP      L**3/T
     ------------------                 ------------------------

           IN:                                      IN:
           ---                                      ---
                 GWF =     5417766.6998                   GWF =        1387.6745
            RAINFALL =           0.0000              RAINFALL =           0.0000
         EVAPORATION =           0.0000           EVAPORATION =           0.0000
              RUNOFF =           0.0000                RUNOFF =           0.0000
          EXT-INFLOW =      830535.5653            EXT-INFLOW =         218.3035
         EXT-OUTFLOW =           0.0000           EXT-OUTFLOW =           0.0000
             STORAGE =           0.0000               STORAGE =           0.0000

            TOTAL IN =     6248302.2650              TOTAL IN =        1605.9779

          OUT:                                     OUT:
          ----                                     ----
                 GWF =       64002.2481                   GWF =          44.6073
            RAINFALL =           0.0000              RAINFALL =           0.0000
         EVAPORATION =           0.0000           EVAPORATION =           0.0000
              RUNOFF =           0.0000                RUNOFF =           0.0000
          EXT-INFLOW =           0.0000            EXT-INFLOW =           0.0000
         EXT-OUTFLOW =     6184300.0170           EXT-OUTFLOW =        1561.3706
             STORAGE =           0.0000               STORAGE =           0.0000

           TOTAL OUT =     6248302.2650             TOTAL OUT =        1605.9779

            IN - OUT =      -9.3132E-10              IN - OUT =           0.0000

 PERCENT DISCREPANCY =          -0.00     PERCENT DISCREPANCY =           0.00



  VOLUME BUDGET FOR ENTIRE MODEL AT END OF TIME STEP    1, STRESS PERIOD   6
  ---------------------------------------------------------------------------------------------------

     CUMULATIVE VOLUME      L**3       RATES FOR THIS TIME STEP      L**3/T          PACKAGE NAME    
     ------------------                 ------------------------                     ----------------

           IN:                                      IN:
           ---                                      ---
              STO-SS =        3723.2343                STO-SS =           2.8109     STORAGE                          
              STO-SY =      683823.6085                STO-SY =        1034.1163     STORAGE                          
                 WEL =           0.0000                   WEL =           0.0000     WEL                              
                 GHB =           0.0000                   GHB =           0.0000     GHB                              
                RCHA =    11419278.7260                  RCHA =        4228.1401     RCH                              
                 SFR =       80624.6272                   SFR =          45.7090     SFR_1                            

            TOTAL IN =    12187450.1960              TOTAL IN =        5310.7764

          OUT:                                     OUT:
          ----                                     ----
              STO-SS =        2853.4238                STO-SS =           0.7282     STORAGE                          
              STO-SY =     1269860.0671                STO-SY =         330.5038     STORAGE                          
                 WEL =     3804061.0997                   WEL =        2939.7785     WEL                              
                 GHB =     2197603.5120                   GHB =         666.9034     GHB                              
                RCHA =           0.0000                  RCHA =           0.0000     RCH                              
                 SFR =     4926604.6444                   SFR =        1374.8728     SFR_1                            

           TOTAL OUT =    12200982.7470             TOTAL OUT =        5312.7868

            IN - OUT =      -13532.5511              IN - OUT =          -2.0104

 PERCENT DISCREPANCY =          -0.11     PERCENT DISCREPANCY =          -0.04




         TIME SUMMARY AT END OF TIME STEP    1 IN STRESS PERIOD    6
[...]
             STORAGE =           0.0000               STORAGE =           0.0000

           TOTAL OUT =     6499142.2502             TOTAL OUT =         226.3331

            IN - OUT =      -1.8626E-09              IN - OUT =       2.8422E-14

 PERCENT DISCREPANCY =          -0.00     PERCENT DISCREPANCY =           0.00



  VOLUME BUDGET FOR ENTIRE MODEL AT END OF TIME STEP    1, STRESS PERIOD  23
  ---------------------------------------------------------------------------------------------------

     CUMULATIVE VOLUME      L**3       RATES FOR THIS TIME STEP      L**3/T          PACKAGE NAME    
     ------------------                 ------------------------                     ----------------

           IN:                                      IN:
           ---                                      ---
              STO-SS =        6634.0374                STO-SS =           7.8786     STORAGE                          
              STO-SY =     1897328.7312                STO-SY =        3544.8789     STORAGE                          
                 WEL =           0.0000                   WEL =           0.0000     WEL                              
                 GHB =       16867.5401                   GHB =         201.3212     GHB                              
                RCHA =    12578814.4505                  RCHA =         213.1879     RCH                              
                 SFR =      231790.6056                   SFR =         229.4343     SFR_1                            

            TOTAL IN =    14731435.3648              TOTAL IN =        4196.7008

          OUT:                                     OUT:
          ----                                     ----
              STO-SS =        3322.7858                STO-SS =           0.4893     STORAGE                          
              STO-SY =     1453134.7996                STO-SY =         185.2552     STORAGE                          
                 WEL =     5852767.5463                   WEL =        4003.3744     WEL                              
                 GHB =     2375662.2914                   GHB =           3.6285     GHB                              
                RCHA =           0.0000                  RCHA =           0.0000     RCH                              
                 SFR =     5060364.5480                   SFR =           7.9052     SFR_1                            

           TOTAL OUT =    14745251.9711             TOTAL OUT =        4200.6526

            IN - OUT =      -13816.6063              IN - OUT =          -3.9517

 PERCENT DISCREPANCY =          -0.09     PERCENT DISCREPANCY =          -0.09




         TIME SUMMARY AT END OF TIME STEP    1 IN STRESS PERIOD   23
                    SECONDS     MINUTES      HOURS       DAYS        YEARS
                    -----------------------------------------------------------
   TIME STEP LENGTH 2.67840E+06  44640.      744.00      31.000     8.48734E-02
 STRESS PERIOD TIME 2.67840E+06  44640.      744.00      31.000     8.48734E-02
         TOTAL TIME 3.73464E+08 6.22440E+06 1.03740E+05  4322.5      11.834    


end timestep


start timestep kper="24" kstp="1" mode="normal"


 OUTPUT CONTROL FOR STRESS PERIOD 24 IS REPEATED USING SETTINGS FROM A PREVIOUS STRESS PERIOD.


 STRESS PERIOD 24 IS TRANSIENT


 OPENED freyberg6.wel_stress_period_data_24.txt
 FILE TYPE:OPEN/CLOSE   UNIT 1084   STATUS:OLD                 
 FORMAT:FORMATTED              ACCESS:SEQUENTIAL          
 ACTION:READ                

 ---------------------------------------------------
  WEL NO.    LAYER    ROW     COL     STRESS RATE   
 ---------------------------------------------------
     1         1      10      17    -554.143343     
     2         1      12      14    -101.347761     
     3         1      21      15    -261.535544     
     4         1      27      11    -149.880346     
     5         1      30       7    -227.117264     
     6         1      35      13    -255.284250     
     7         1      25       5    -396.287443     
 ---------------------------------------------------



 REUSING GHBS FROM LAST STRESS PERIOD

 OPENED freyberg6.rch_recharge_24.txt
 FILE TYPE:OPEN/CLOSE   UNIT 1085   STATUS:OLD                 
 FORMAT:FORMATTED              ACCESS:SEQUENTIAL          
 ACTION:READ                


 REUSING SFRS FROM LAST STRESS PERIOD
 UBDSV1 SAVING     FLOW-JA-FACE ON UNIT   1033 AT TIME STEP      1, STRESS PERIOD     24
 UBDSV06 SAVING              WEL IN MODEL FREYBERG6        PACKAGE FREYBERG6       CONNECTED TO MODEL FREYBERG6        PACKAGE WEL              ON UNIT   1033 AT TIME STEP      1, STRESS PERIOD     24
 UBDSV06 SAVING              GHB IN MODEL FREYBERG6        PACKAGE FREYBERG6       CONNECTED TO MODEL FREYBERG6        PACKAGE GHB              ON UNIT   1033 AT TIME STEP      1, STRESS PERIOD     24
 UBDSV06 SAVING             RCHA IN MODEL FREYBERG6        PACKAGE FREYBERG6       CONNECTED TO MODEL FREYBERG6        PACKAGE RCH              ON UNIT   1033 AT TIME STEP      1, STRESS PERIOD     24
 UBDSV06 SAVING              SFR IN MODEL FREYBERG6        PACKAGE FREYBERG6       CONNECTED TO MODEL FREYBERG6        PACKAGE SFR_1            ON UNIT   1033 AT TIME STEP      1, STRESS PERIOD     24

 WEL PACKAGE (WEL) FLOW RATES   PERIOD     24   STEP        1
 -----------------------------------------------
   NUMBER   CELLID                    RATE      
 -----------------------------------------------
     1      (1,10,17)            -554.14334     
     2      (1,12,14)            -101.34776     
     3      (1,21,15)            -261.53554     
     4      (1,27,11)            -149.88035     
     5      (1,30,7)             -227.11726     
     6      (1,35,13)            -255.28425     
     7      (1,25,5)             -396.28744     
 -----------------------------------------------




 GHB PACKAGE (GHB) FLOW RATES   PERIOD     24   STEP        1
 -----------------------------------------------
   NUMBER   CELLID                    RATE      
 -----------------------------------------------
     1      (1,40,6)             -2.1555904     
     2      (1,40,7)              22.790174     
     3      (1,40,8)              44.618417     
     4      (1,40,9)              40.322075     
     5      (1,40,10)             72.544329     
     6      (1,40,11)            -1.4275943     
     7      (1,40,12)            -1.5832993     
     8      (1,40,13)            -4.84908866E-02
     9      (1,40,14)             10.082052     
     10     (1,40,15)             1.6873664     
 -----------------------------------------------




 HEAD WILL BE SAVED ON UNIT 1034 AT END OF TIME STEP    1, STRESS PERIOD   24


  SFR_1 BUDGET FOR ENTIRE MODEL AT END OF TIME STEP    1, STRESS PERIOD  24
  ------------------------------------------------------------------------------

     CUMULATIVE SFR_1      L**3       RATES FOR THIS TIME STEP      L**3/T
     ------------------                 ------------------------

           IN:                                      IN:
           ---                                      ---
                 GWF =     5555686.6045                   GWF =           5.3706
            RAINFALL =           0.0000              RAINFALL =           0.0000
         EVAPORATION =           0.0000           EVAPORATION =           0.0000
              RUNOFF =           0.0000                RUNOFF =           0.0000
          EXT-INFLOW =      950165.8688            EXT-INFLOW =         218.3035
         EXT-OUTFLOW =           0.0000           EXT-OUTFLOW =           0.0000
             STORAGE =           0.0000               STORAGE =           0.0000

            TOTAL IN =     6505852.4733              TOTAL IN =         223.6741

          OUT:                                     OUT:
          ----                                     ----
                 GWF =      220501.4128                   GWF =         223.6741
            RAINFALL =           0.0000              RAINFALL =           0.0000
         EVAPORATION =           0.0000           EVAPORATION =           0.0000
              RUNOFF =           0.0000                RUNOFF =           0.0000
          EXT-INFLOW =           0.0000            EXT-INFLOW =           0.0000
         EXT-OUTFLOW =     6285351.0605           EXT-OUTFLOW =           0.0000
             STORAGE =           0.0000               STORAGE =           0.0000

           TOTAL OUT =     6505852.4733             TOTAL OUT =         223.6741

            IN - OUT =      -1.8626E-09              IN - OUT =       5.6843E-14

 PERCENT DISCREPANCY =          -0.00     PERCENT DISCREPANCY =           0.00



  VOLUME BUDGET FOR ENTIRE MODEL AT END OF TIME STEP    1, STRESS PERIOD  24
  ---------------------------------------------------------------------------------------------------

     CUMULATIVE VOLUME      L**3       RATES FOR THIS TIME STEP      L**3/T          PACKAGE NAME    
     ------------------                 ------------------------                     ----------------

           IN:                                      IN:
           ---                                      ---
              STO-SS =        6709.2927                STO-SS =           2.5085     STORAGE                          
              STO-SY =     1936121.1222                STO-SY =        1293.0797     STORAGE                          
                 WEL =           0.0000                   WEL =           0.0000     WEL                              
                 GHB =       22628.8725                   GHB =         192.0444     GHB                              
                RCHA =    12607730.8768                  RCHA =         963.8809     RCH                              
                 SFR =      238563.1858                   SFR =         225.7527     SFR_1                            

            TOTAL IN =    14811753.3501              TOTAL IN =        2677.2662

          OUT:                                     OUT:
          ----                                     ----
              STO-SS =        3379.8001                STO-SS =           1.9005     STORAGE                          
              STO-SY =     1474774.2660                STO-SY =         721.3155     STORAGE                          
                 WEL =     5911135.4249                   WEL =        1945.5960     WEL                              
                 GHB =     2375818.7407                   GHB =           5.2150     GHB                              
                RCHA =           0.0000                  RCHA =           0.0000     RCH                              
                 SFR =     5060523.9838                   SFR =           5.3145     SFR_1                            

           TOTAL OUT =    14825632.2155             TOTAL OUT =        2679.3415

            IN - OUT =      -13878.8655              IN - OUT =          -2.0753

 PERCENT DISCREPANCY =          -0.09     PERCENT DISCREPANCY =          -0.08




         TIME SUMMARY AT END OF TIME STEP    1 IN STRESS PERIOD   24
                    SECONDS     MINUTES      HOURS       DAYS        YEARS
                    -----------------------------------------------------------
   TIME STEP LENGTH 2.59200E+06  43200.      720.00      30.000     8.21355E-02
 STRESS PERIOD TIME 2.59200E+06  43200.      720.00      30.000     8.21355E-02
         TOTAL TIME 3.76056E+08 6.26760E+06 1.04460E+05  4352.5      11.916    


end timestep


start timestep kper="25" kstp="1" mode="normal"


 OUTPUT CONTROL FOR STRESS PERIOD 25 IS REPEATED USING SETTINGS FROM A PREVIOUS STRESS PERIOD.


 STRESS PERIOD 25 IS TRANSIENT


 OPENED freyberg6.wel_stress_period_data_25.txt
 FILE TYPE:OPEN/CLOSE   UNIT 1086   STATUS:OLD                 
 FORMAT:FORMATTED              ACCESS:SEQUENTIAL          
 ACTION:READ                

 ---------------------------------------------------
  WEL NO.    LAYER    ROW     COL     STRESS RATE   
 ---------------------------------------------------
     1         1      10      17    -551.577909     
     2         1      12      14    -371.712572     
     3         1      21      15    -325.315837     
     4         1      27      11    -335.859725     
     5         1      30       7    -143.482884     
     6         1      35      13    -285.566153     
     7         1      25       5    -626.507254     
 ---------------------------------------------------



 REUSING GHBS FROM LAST STRESS PERIOD

 OPENED freyberg6.rch_recharge_25.txt
 FILE TYPE:OPEN/CLOSE   UNIT 1087   STATUS:OLD                 
 FORMAT:FORMATTED              ACCESS:SEQUENTIAL          
 ACTION:READ                


 REUSING SFRS FROM LAST STRESS PERIOD
 UBDSV1 SAVING     FLOW-JA-FACE ON UNIT   1033 AT TIME STEP      1, STRESS PERIOD     25
 UBDSV06 SAVING              WEL IN MODEL FREYBERG6        PACKAGE FREYBERG6       CONNECTED TO MODEL FREYBERG6        PACKAGE WEL              ON UNIT   1033 AT TIME STEP      1, STRESS PERIOD     25
 UBDSV06 SAVING              GHB IN MODEL FREYBERG6        PACKAGE FREYBERG6       CONNECTED TO MODEL FREYBERG6        PACKAGE GHB              ON UNIT   1033 AT TIME STEP      1, STRESS PERIOD     25
 UBDSV06 SAVING             RCHA IN MODEL FREYBERG6        PACKAGE FREYBERG6       CONNECTED TO MODEL FREYBERG6        PACKAGE RCH              ON UNIT   1033 AT TIME STEP      1, STRESS PERIOD     25
 UBDSV06 SAVING              SFR IN MODEL FREYBERG6        PACKAGE FREYBERG6       CONNECTED TO MODEL FREYBERG6        PACKAGE SFR_1            ON UNIT   1033 AT TIME STEP      1, STRESS PERIOD     25

 WEL PACKAGE (WEL) FLOW RATES   PERIOD     25   STEP        1
 -----------------------------------------------
   NUMBER   CELLID                    RATE      
 -----------------------------------------------
     1      (1,10,17)            -551.57791     
     2      (1,12,14)            -371.71257     
     3      (1,21,15)            -325.31584     
     4      (1,27,11)            -335.85973     
     5      (1,30,7)             -143.48288     
     6      (1,35,13)            -285.56615     
     7      (1,25,5)             -626.50725     
 -----------------------------------------------




 GHB PACKAGE (GHB) FLOW RATES   PERIOD     25   STEP        1
 -----------------------------------------------
   NUMBER   CELLID                    RATE      
 -----------------------------------------------
     1      (1,40,6)             -8.0286581     
     2      (1,40,7)              18.163889     
     3      (1,40,8)              37.199890     
     4      (1,40,9)              32.323289     
     5      (1,40,10)             63.860405     
     6      (1,40,11)            -9.0434686     
     7      (1,40,12)            -6.5367227     
     8      (1,40,13)            -7.5581587     
     9      (1,40,14)             3.8923650     
     10     (1,40,15)            -2.5206141     
 -----------------------------------------------




 HEAD WILL BE SAVED ON UNIT 1034 AT END OF TIME STEP    1, STRESS PERIOD   25


  SFR_1 BUDGET FOR ENTIRE MODEL AT END OF TIME STEP    1, STRESS PERIOD  25
  ------------------------------------------------------------------------------

     CUMULATIVE SFR_1      L**3       RATES FOR THIS TIME STEP      L**3/T
     ------------------                 ------------------------

           IN:                                      IN:
           ---                                      ---
                 GWF =     5556064.8686                   GWF =          12.2021
            RAINFALL =           0.0000              RAINFALL =           0.0000
         EVAPORATION =           0.0000           EVAPORATION =           0.0000
              RUNOFF =           0.0000                RUNOFF =           0.0000
          EXT-INFLOW =      956933.2765            EXT-INFLOW =         218.3035
         EXT-OUTFLOW =           0.0000           EXT-OUTFLOW =           0.0000
             STORAGE =           0.0000               STORAGE =           0.0000

            TOTAL IN =     6512998.1451              TOTAL IN =         230.5055

          OUT:                                     OUT:
          ----                                     ----
                 GWF =      227647.0846                   GWF =         230.5055
            RAINFALL =           0.0000              RAINFALL =           0.0000
         EVAPORATION =           0.0000           EVAPORATION =           0.0000
              RUNOFF =           0.0000                RUNOFF =           0.0000
          EXT-INFLOW =           0.0000            EXT-INFLOW =           0.0000
         EXT-OUTFLOW =     6285351.0605           EXT-OUTFLOW =           0.0000
             STORAGE =           0.0000               STORAGE =           0.0000

           TOTAL OUT =     6512998.1451             TOTAL OUT =         230.5055

            IN - OUT =      -1.8626E-09              IN - OUT =      -2.8422E-14

 PERCENT DISCREPANCY =          -0.00     PERCENT DISCREPANCY =          -0.00



  VOLUME BUDGET FOR ENTIRE MODEL AT END OF TIME STEP    1, STRESS PERIOD  25
  ---------------------------------------------------------------------------------------------------

     CUMULATIVE VOLUME      L**3       RATES FOR THIS TIME STEP      L**3/T          PACKAGE NAME    
     ------------------                 ------------------------                     ----------------

           IN:                                      IN:
           ---                                      ---
              STO-SS =        6739.1428                STO-SS =           0.9629     STORAGE                          
              STO-SY =     1951608.3351                STO-SY =         499.5875     STORAGE                          
                 WEL =           0.0000                   WEL =           0.0000     WEL                              
                 GHB =       27447.5075                   GHB =         155.4398     GHB                              
                RCHA =    12686213.5100                  RCHA =        2531.6978     RCH                              
                 SFR =      245639.5012                   SFR =         228.2682     SFR_1                            

            TOTAL IN =    14917647.9966              TOTAL IN =        3415.9563

          OUT:                                     OUT:
          ----                                     ----
              STO-SS =        3437.6531                STO-SS =           1.8662     STORAGE                          
              STO-SY =     1497273.9075                STO-SY =         725.7949     STORAGE                          
                 WEL =     5992976.1173                   WEL =        2640.0223     WEL                              
                 GHB =     2376863.0570                   GHB =          33.6876     GHB                              
                RCHA =           0.0000                  RCHA =           0.0000     RCH                              
                 SFR =     5060910.3516                   SFR =          12.4635     SFR_1                            

           TOTAL OUT =    14931461.0864             TOTAL OUT =        3413.8345

            IN - OUT =      -13813.0898              IN - OUT =           2.1218

 PERCENT DISCREPANCY =          -0.09     PERCENT DISCREPANCY =           0.06




         TIME SUMMARY AT END OF TIME STEP    1 IN STRESS PERIOD   25
                    SECONDS     MINUTES      HOURS       DAYS        YEARS
                    -----------------------------------------------------------
   TIME STEP LENGTH 2.67840E+06  44640.      744.00      31.000     8.48734E-02
 STRESS PERIOD TIME 2.67840E+06  44640.      744.00      31.000     8.48734E-02
         TOTAL TIME 3.78734E+08 6.31224E+06 1.05204E+05  4383.5      12.001    


end timestep

