                                   MODFLOW 6
                U.S. GEOLOGICAL SURVEY MODULAR HYDROLOGIC MODEL
                            VERSION 6.6.1 02/10/2025

   MODFLOW 6 compiled Feb 14 2025 13:40:10 with Intel(R) Fortran Intel(R) 64
   Compiler Classic for applications running on Intel(R) 64, Version 2021.7.0
                             Build 20220726_000000

This software has been approved for release by the U.S. Geological 
Survey (USGS). Although the software has been subjected to rigorous 
review, the USGS reserves the right to update the software as needed 
pursuant to further analysis and review. No warranty, expressed or 
implied, is made by the USGS or the U.S. Government as to the 
functionality of the software and related material nor shall the 
fact of release constitute any such warranty. Furthermore, the 
software is released on condition that neither the USGS nor the U.S. 
Government shall be held liable for any damages resulting from its 
authorized or unauthorized use. Also refer to the USGS Water 
Resources Software User Rights Notice for complete use, copyright, 
and distribution information.


As a work of the United States Government, this USGS product is 
in the public domain within the United States. You can copy, 
modify, distribute, and perform the work, even for commercial 
purposes, all without asking permission. Additionally, USGS 
waives copyright and related rights in the work worldwide 
through CC0 1.0 Universal Public Domain Dedication 
(https://creativecommons.org/publicdomain/zero/1.0/).

The following GNU Lesser General Public License (LGPL) libraries
are used in this USGS product:

    SPARSKIT version 2.0
      ilut, luson, and qsplit 
      (https://www-users.cse.umn.edu/~saad/software/SPARSKIT/)

    RCM - Reverse Cuthill McKee Ordering
      (https://people.math.sc.edu/Burkardt/f_src/rcm/rcm.html)

    BLAS - Basic Linear Algebra Subprograms Level 1
      (https://people.math.sc.edu/Burkardt/f_src/blas1_d/blas1_d.html)

    SPARSEKIT - Sparse Matrix Utility Package
      amux, dperm, dvperm, rperm, and cperm
      (https://people.sc.fsu.edu/~jburkardt/f77_src/sparsekit/sparsekit.html)

The following BSD-3 License libraries are used in this USGS product:

    Modern Fortran DAG Library
      Copyright (c) 2018, Jacob Williams
      All rights reserved.
      (https://github.com/jacobwilliams/daglib)

MODFLOW 6 compiler options: /O2 /heap-arrays:0 /fpe:0 /traceback /nologo /fpp
/c /module:win64\mod_mf6\ /object:win64\obj_mf6\

System command used to initiate simulation:
C:\Users\gross.DESKTOP-AIRQM2M\anaconda3\Scripts\mf6.exe

MODFLOW was compiled using uniform precision.

Real Variables
  KIND: 8
  TINY (smallest non-zero value):    2.225074-308
  HUGE (largest value):    1.797693+308
  PRECISION: 15
  SIZE IN BITS: 64

Integer Variables
  KIND: 4
  HUGE (largest value): 2147483647
  SIZE IN BITS: 32

Long Integer Variables
  KIND: 8
  HUGE (largest value): 9223372036854775807
  SIZE IN BITS: 64

Logical Variables
  KIND: 4
  SIZE IN BITS: 32
 

 OPENED mfsim.nam
 FILE TYPE:NAM6               UNIT 1001   STATUS:OLD                 
 FORMAT:FORMATTED              ACCESS:SEQUENTIAL          
 ACTION:READ                

 # File generated by Flopy version 3.10.0.dev3 on 06/15/2025 at 07:23:09.

 OPENED basin.tdis
 FILE TYPE:TDIS6              UNIT 1002   STATUS:OLD                 
 FORMAT:FORMATTED              ACCESS:SEQUENTIAL          
 ACTION:READ                

 # File generated by Flopy version 3.10.0.dev3 on 06/15/2025 at 07:23:09.

 OPENED model_0.nam
 FILE TYPE:GWF6               UNIT 1003   STATUS:OLD                 
 FORMAT:FORMATTED              ACCESS:SEQUENTIAL          
 ACTION:READ                

 # File generated by Flopy version 3.10.0.dev3 on 06/15/2025 at 07:23:09.

 OPENED model_0.dis
 FILE TYPE:DIS6               UNIT 1004   STATUS:OLD                 
 FORMAT:FORMATTED              ACCESS:SEQUENTIAL          
 ACTION:READ                

 # File generated by Flopy version 3.10.0.dev3 on 06/15/2025 at 07:23:09.

 OPENED model_0.npf
 FILE TYPE:NPF6               UNIT 1005   STATUS:OLD                 
 FORMAT:FORMATTED              ACCESS:SEQUENTIAL          
 ACTION:READ                

 # File generated by Flopy version 3.10.0.dev3 on 06/15/2025 at 07:23:09.

 OPENED model_0.sto
 FILE TYPE:STO6               UNIT 1006   STATUS:OLD                 
 FORMAT:FORMATTED              ACCESS:SEQUENTIAL          
 ACTION:READ                

 # File generated by Flopy version 3.10.0.dev3 on 06/15/2025 at 07:23:09.

 OPENED model_0.ic
 FILE TYPE:IC6                UNIT 1007   STATUS:OLD                 
 FORMAT:FORMATTED              ACCESS:SEQUENTIAL          
 ACTION:READ                

 # File generated by Flopy version 3.10.0.dev3 on 06/15/2025 at 07:23:09.

 OPENED model_0.oc
 FILE TYPE:OC6       UNIT 1008   STATUS:OLD                 
 FORMAT:FORMATTED              ACCESS:SEQUENTIAL          
 ACTION:READ                


 OPENED model_0.drn
 FILE TYPE:DRN6               UNIT 1009   STATUS:OLD                 
 FORMAT:FORMATTED              ACCESS:SEQUENTIAL          
 ACTION:READ                

 # File generated by Flopy version 3.10.0.dev3 on 06/15/2025 at 07:23:09.

 OPENED model_0_0.drn
 FILE TYPE:DRN6               UNIT 1010   STATUS:OLD                 
 FORMAT:FORMATTED              ACCESS:SEQUENTIAL          
 ACTION:READ                

 # File generated by Flopy version 3.10.0.dev3 on 06/15/2025 at 07:23:09.
    AUXILIARY  VARIABLE: DEPTH           

 OPENED model_0.rcha
 FILE TYPE:RCH6               UNIT 1012   STATUS:OLD                 
 FORMAT:FORMATTED              ACCESS:SEQUENTIAL          
 ACTION:READ                

 # File generated by Flopy version 3.10.0.dev3 on 06/15/2025 at 07:23:09.

 OPENED model_1.nam
 FILE TYPE:GWF6               UNIT 1013   STATUS:OLD                 
 FORMAT:FORMATTED              ACCESS:SEQUENTIAL          
 ACTION:READ                

 # File generated by Flopy version 3.10.0.dev3 on 06/15/2025 at 07:23:09.

 OPENED model_1.dis
 FILE TYPE:DIS6               UNIT 1014   STATUS:OLD                 
 FORMAT:FORMATTED              ACCESS:SEQUENTIAL          
 ACTION:READ                

 # File generated by Flopy version 3.10.0.dev3 on 06/15/2025 at 07:23:09.

 OPENED model_1.npf
 FILE TYPE:NPF6               UNIT 1015   STATUS:OLD                 
 FORMAT:FORMATTED              ACCESS:SEQUENTIAL          
 ACTION:READ                

 # File generated by Flopy version 3.10.0.dev3 on 06/15/2025 at 07:23:09.

 OPENED model_1.sto
 FILE TYPE:STO6               UNIT 1016   STATUS:OLD                 
 FORMAT:FORMATTED              ACCESS:SEQUENTIAL          
 ACTION:READ                

 # File generated by Flopy version 3.10.0.dev3 on 06/15/2025 at 07:23:09.

 OPENED model_1.ic
 FILE TYPE:IC6                UNIT 1017   STATUS:OLD                 
 FORMAT:FORMATTED              ACCESS:SEQUENTIAL          
 ACTION:READ                

 # File generated by Flopy version 3.10.0.dev3 on 06/15/2025 at 07:23:09.

 OPENED model_1.oc
 FILE TYPE:OC6       UNIT 1018   STATUS:OLD                 
 FORMAT:FORMATTED              ACCESS:SEQUENTIAL          
 ACTION:READ                


 OPENED model_1.drn
 FILE TYPE:DRN6               UNIT 1019   STATUS:OLD                 
 FORMAT:FORMATTED              ACCESS:SEQUENTIAL          
 ACTION:READ                

 # File generated by Flopy version 3.10.0.dev3 on 06/15/2025 at 07:23:09.

 OPENED model_1_0.drn
 FILE TYPE:DRN6               UNIT 1020   STATUS:OLD                 
 FORMAT:FORMATTED              ACCESS:SEQUENTIAL          
 ACTION:READ                

 # File generated by Flopy version 3.10.0.dev3 on 06/15/2025 at 07:23:09.
    AUXILIARY  VARIABLE: DEPTH           

 OPENED model_1.rcha
 FILE TYPE:RCH6               UNIT 1022   STATUS:OLD                 
 FORMAT:FORMATTED              ACCESS:SEQUENTIAL          
 ACTION:READ                

 # File generated by Flopy version 3.10.0.dev3 on 06/15/2025 at 07:23:09.

 OPENED model_2.nam
 FILE TYPE:GWF6               UNIT 1023   STATUS:OLD                 
 FORMAT:FORMATTED              ACCESS:SEQUENTIAL          
 ACTION:READ                

 # File generated by Flopy version 3.10.0.dev3 on 06/15/2025 at 07:23:09.

 OPENED model_2.dis
 FILE TYPE:DIS6               UNIT 1024   STATUS:OLD                 
 FORMAT:FORMATTED              ACCESS:SEQUENTIAL          
 ACTION:READ                

 # File generated by Flopy version 3.10.0.dev3 on 06/15/2025 at 07:23:09.

 OPENED model_2.npf
 FILE TYPE:NPF6               UNIT 1025   STATUS:OLD                 
 FORMAT:FORMATTED              ACCESS:SEQUENTIAL          
 ACTION:READ                

 # File generated by Flopy version 3.10.0.dev3 on 06/15/2025 at 07:23:09.

 OPENED model_2.sto
 FILE TYPE:STO6               UNIT 1026   STATUS:OLD                 
 FORMAT:FORMATTED              ACCESS:SEQUENTIAL          
 ACTION:READ                

 # File generated by Flopy version 3.10.0.dev3 on 06/15/2025 at 07:23:09.

 OPENED model_2.ic
 FILE TYPE:IC6                UNIT 1027   STATUS:OLD                 
 FORMAT:FORMATTED              ACCESS:SEQUENTIAL          
 ACTION:READ                

 # File generated by Flopy version 3.10.0.dev3 on 06/15/2025 at 07:23:09.

 OPENED model_2.oc
 FILE TYPE:OC6       UNIT 1028   STATUS:OLD                 
 FORMAT:FORMATTED              ACCESS:SEQUENTIAL          
 ACTION:READ                


 OPENED model_2.drn
 FILE TYPE:DRN6               UNIT 1029   STATUS:OLD                 
 FORMAT:FORMATTED              ACCESS:SEQUENTIAL          
 ACTION:READ                

 # File generated by Flopy version 3.10.0.dev3 on 06/15/2025 at 07:23:09.

 OPENED model_2_0.drn
 FILE TYPE:DRN6               UNIT 1030   STATUS:OLD                 
 FORMAT:FORMATTED              ACCESS:SEQUENTIAL          
 ACTION:READ                

 # File generated by Flopy version 3.10.0.dev3 on 06/15/2025 at 07:23:09.
    AUXILIARY  VARIABLE: DEPTH           

 OPENED model_2.rcha
 FILE TYPE:RCH6               UNIT 1032   STATUS:OLD                 
 FORMAT:FORMATTED              ACCESS:SEQUENTIAL          
 ACTION:READ                

 # File generated by Flopy version 3.10.0.dev3 on 06/15/2025 at 07:23:09.

 OPENED model_3.nam
 FILE TYPE:GWF6               UNIT 1033   STATUS:OLD                 
 FORMAT:FORMATTED              ACCESS:SEQUENTIAL          
 ACTION:READ                

 # File generated by Flopy version 3.10.0.dev3 on 06/15/2025 at 07:23:09.

 OPENED model_3.dis
 FILE TYPE:DIS6               UNIT 1034   STATUS:OLD                 
 FORMAT:FORMATTED              ACCESS:SEQUENTIAL          
 ACTION:READ                

 # File generated by Flopy version 3.10.0.dev3 on 06/15/2025 at 07:23:09.

 OPENED model_3.npf
 FILE TYPE:NPF6               UNIT 1035   STATUS:OLD                 
 FORMAT:FORMATTED              ACCESS:SEQUENTIAL          
 ACTION:READ                

 # File generated by Flopy version 3.10.0.dev3 on 06/15/2025 at 07:23:09.

 OPENED model_3.sto
 FILE TYPE:STO6               UNIT 1036   STATUS:OLD                 
 FORMAT:FORMATTED              ACCESS:SEQUENTIAL          
 ACTION:READ                

 # File generated by Flopy version 3.10.0.dev3 on 06/15/2025 at 07:23:09.

 OPENED model_3.ic
 FILE TYPE:IC6                UNIT 1037   STATUS:OLD                 
 FORMAT:FORMATTED              ACCESS:SEQUENTIAL          
 ACTION:READ                

 # File generated by Flopy version 3.10.0.dev3 on 06/15/2025 at 07:23:09.

 OPENED model_3.oc
 FILE TYPE:OC6       UNIT 1038   STATUS:OLD                 
 FORMAT:FORMATTED              ACCESS:SEQUENTIAL          
 ACTION:READ                


 OPENED model_3.drn
 FILE TYPE:DRN6               UNIT 1039   STATUS:OLD                 
 FORMAT:FORMATTED              ACCESS:SEQUENTIAL          
 ACTION:READ                

 # File generated by Flopy version 3.10.0.dev3 on 06/15/2025 at 07:23:09.

 OPENED model_3_0.drn
 FILE TYPE:DRN6               UNIT 1040   STATUS:OLD                 
 FORMAT:FORMATTED              ACCESS:SEQUENTIAL          
 ACTION:READ                

 # File generated by Flopy version 3.10.0.dev3 on 06/15/2025 at 07:23:09.
    AUXILIARY  VARIABLE: DEPTH           

 OPENED model_3.rcha
 FILE TYPE:RCH6               UNIT 1042   STATUS:OLD                 
 FORMAT:FORMATTED              ACCESS:SEQUENTIAL          
 ACTION:READ                

 # File generated by Flopy version 3.10.0.dev3 on 06/15/2025 at 07:23:09.

 OPENED model_4.nam
 FILE TYPE:GWF6               UNIT 1043   STATUS:OLD                 
 FORMAT:FORMATTED              ACCESS:SEQUENTIAL          
 ACTION:READ                

 # File generated by Flopy version 3.10.0.dev3 on 06/15/2025 at 07:23:09.

 OPENED model_4.dis
 FILE TYPE:DIS6               UNIT 1044   STATUS:OLD                 
 FORMAT:FORMATTED              ACCESS:SEQUENTIAL          
 ACTION:READ                

 # File generated by Flopy version 3.10.0.dev3 on 06/15/2025 at 07:23:09.

 OPENED model_4.npf
 FILE TYPE:NPF6               UNIT 1045   STATUS:OLD                 
 FORMAT:FORMATTED              ACCESS:SEQUENTIAL          
 ACTION:READ                

 # File generated by Flopy version 3.10.0.dev3 on 06/15/2025 at 07:23:09.

 OPENED model_4.sto
 FILE TYPE:STO6               UNIT 1046   STATUS:OLD                 
 FORMAT:FORMATTED              ACCESS:SEQUENTIAL          
 ACTION:READ                

 # File generated by Flopy version 3.10.0.dev3 on 06/15/2025 at 07:23:09.

 OPENED model_4.ic
 FILE TYPE:IC6                UNIT 1047   STATUS:OLD                 
 FORMAT:FORMATTED              ACCESS:SEQUENTIAL          
 ACTION:READ                

 # File generated by Flopy version 3.10.0.dev3 on 06/15/2025 at 07:23:09.

 OPENED model_4.oc
 FILE TYPE:OC6       UNIT 1048   STATUS:OLD                 
 FORMAT:FORMATTED              ACCESS:SEQUENTIAL          
 ACTION:READ                


 OPENED model_4.drn
 FILE TYPE:DRN6               UNIT 1049   STATUS:OLD                 
 FORMAT:FORMATTED              ACCESS:SEQUENTIAL          
 ACTION:READ                

 # File generated by Flopy version 3.10.0.dev3 on 06/15/2025 at 07:23:09.

 OPENED model_4_0.drn
 FILE TYPE:DRN6               UNIT 1050   STATUS:OLD                 
 FORMAT:FORMATTED              ACCESS:SEQUENTIAL          
 ACTION:READ                

 # File generated by Flopy version 3.10.0.dev3 on 06/15/2025 at 07:23:10.
    AUXILIARY  VARIABLE: DEPTH           

 OPENED model_4.rcha
 FILE TYPE:RCH6               UNIT 1052   STATUS:OLD                 
 FORMAT:FORMATTED              ACCESS:SEQUENTIAL          
 ACTION:READ                

 # File generated by Flopy version 3.10.0.dev3 on 06/15/2025 at 07:23:09.

 OPENED model_5.nam
 FILE TYPE:GWF6               UNIT 1053   STATUS:OLD                 
 FORMAT:FORMATTED              ACCESS:SEQUENTIAL          
 ACTION:READ                

 # File generated by Flopy version 3.10.0.dev3 on 06/15/2025 at 07:23:10.

 OPENED model_5.dis
 FILE TYPE:DIS6               UNIT 1054   STATUS:OLD                 
 FORMAT:FORMATTED              ACCESS:SEQUENTIAL          
 ACTION:READ                

 # File generated by Flopy version 3.10.0.dev3 on 06/15/2025 at 07:23:10.

 OPENED model_5.npf
 FILE TYPE:NPF6               UNIT 1055   STATUS:OLD                 
 FORMAT:FORMATTED              ACCESS:SEQUENTIAL          
 ACTION:READ                

 # File generated by Flopy version 3.10.0.dev3 on 06/15/2025 at 07:23:10.

 OPENED model_5.sto
 FILE TYPE:STO6               UNIT 1056   STATUS:OLD                 
 FORMAT:FORMATTED              ACCESS:SEQUENTIAL          
 ACTION:READ                

 # File generated by Flopy version 3.10.0.dev3 on 06/15/2025 at 07:23:10.

 OPENED model_5.ic
 FILE TYPE:IC6                UNIT 1057   STATUS:OLD                 
 FORMAT:FORMATTED              ACCESS:SEQUENTIAL          
 ACTION:READ                

 # File generated by Flopy version 3.10.0.dev3 on 06/15/2025 at 07:23:10.

 OPENED model_5.oc
 FILE TYPE:OC6       UNIT 1058   STATUS:OLD                 
 FORMAT:FORMATTED              ACCESS:SEQUENTIAL          
 ACTION:READ                


 OPENED model_5.drn
 FILE TYPE:DRN6               UNIT 1059   STATUS:OLD                 
 FORMAT:FORMATTED              ACCESS:SEQUENTIAL          
 ACTION:READ                

 # File generated by Flopy version 3.10.0.dev3 on 06/15/2025 at 07:23:10.

 OPENED model_5_0.drn
 FILE TYPE:DRN6               UNIT 1060   STATUS:OLD                 
 FORMAT:FORMATTED              ACCESS:SEQUENTIAL          
 ACTION:READ                

 # File generated by Flopy version 3.10.0.dev3 on 06/15/2025 at 07:23:10.
    AUXILIARY  VARIABLE: DEPTH           

 OPENED model_5.rcha
 FILE TYPE:RCH6               UNIT 1062   STATUS:OLD                 
 FORMAT:FORMATTED              ACCESS:SEQUENTIAL          
 ACTION:READ                

 # File generated by Flopy version 3.10.0.dev3 on 06/15/2025 at 07:23:10.

 OPENED model_6.nam
 FILE TYPE:GWF6               UNIT 1063   STATUS:OLD                 
 FORMAT:FORMATTED              ACCESS:SEQUENTIAL          
 ACTION:READ                

 # File generated by Flopy version 3.10.0.dev3 on 06/15/2025 at 07:23:10.

 OPENED model_6.dis
 FILE TYPE:DIS6               UNIT 1064   STATUS:OLD                 
 FORMAT:FORMATTED              ACCESS:SEQUENTIAL          
 ACTION:READ                

 # File generated by Flopy version 3.10.0.dev3 on 06/15/2025 at 07:23:10.

 OPENED model_6.npf
 FILE TYPE:NPF6               UNIT 1065   STATUS:OLD                 
 FORMAT:FORMATTED              ACCESS:SEQUENTIAL          
 ACTION:READ                

 # File generated by Flopy version 3.10.0.dev3 on 06/15/2025 at 07:23:10.

 OPENED model_6.sto
 FILE TYPE:STO6               UNIT 1066   STATUS:OLD                 
 FORMAT:FORMATTED              ACCESS:SEQUENTIAL          
 ACTION:READ                

 # File generated by Flopy version 3.10.0.dev3 on 06/15/2025 at 07:23:10.

 OPENED model_6.ic
 FILE TYPE:IC6                UNIT 1067   STATUS:OLD                 
 FORMAT:FORMATTED              ACCESS:SEQUENTIAL          
 ACTION:READ                

 # File generated by Flopy version 3.10.0.dev3 on 06/15/2025 at 07:23:10.

 OPENED model_6.oc
 FILE TYPE:OC6       UNIT 1068   STATUS:OLD                 
 FORMAT:FORMATTED              ACCESS:SEQUENTIAL          
 ACTION:READ                


 OPENED model_6.drn
 FILE TYPE:DRN6               UNIT 1069   STATUS:OLD                 
 FORMAT:FORMATTED              ACCESS:SEQUENTIAL          
 ACTION:READ                

 # File generated by Flopy version 3.10.0.dev3 on 06/15/2025 at 07:23:10.

 OPENED model_6_0.drn
 FILE TYPE:DRN6               UNIT 1070   STATUS:OLD                 
 FORMAT:FORMATTED              ACCESS:SEQUENTIAL          
 ACTION:READ                

 # File generated by Flopy version 3.10.0.dev3 on 06/15/2025 at 07:23:10.
    AUXILIARY  VARIABLE: DEPTH           

 OPENED model_6.rcha
 FILE TYPE:RCH6               UNIT 1072   STATUS:OLD                 
 FORMAT:FORMATTED              ACCESS:SEQUENTIAL          
 ACTION:READ                

 # File generated by Flopy version 3.10.0.dev3 on 06/15/2025 at 07:23:10.

 OPENED model_7.nam
 FILE TYPE:GWF6               UNIT 1073   STATUS:OLD                 
 FORMAT:FORMATTED              ACCESS:SEQUENTIAL          
 ACTION:READ                

 # File generated by Flopy version 3.10.0.dev3 on 06/15/2025 at 07:23:10.

 OPENED model_7.dis
 FILE TYPE:DIS6               UNIT 1074   STATUS:OLD                 
 FORMAT:FORMATTED              ACCESS:SEQUENTIAL          
 ACTION:READ                

 # File generated by Flopy version 3.10.0.dev3 on 06/15/2025 at 07:23:10.

 OPENED model_7.npf
 FILE TYPE:NPF6               UNIT 1075   STATUS:OLD                 
 FORMAT:FORMATTED              ACCESS:SEQUENTIAL          
 ACTION:READ                

 # File generated by Flopy version 3.10.0.dev3 on 06/15/2025 at 07:23:10.

 OPENED model_7.sto
 FILE TYPE:STO6               UNIT 1076   STATUS:OLD                 
 FORMAT:FORMATTED              ACCESS:SEQUENTIAL          
 ACTION:READ                

 # File generated by Flopy version 3.10.0.dev3 on 06/15/2025 at 07:23:10.

 OPENED model_7.ic
 FILE TYPE:IC6                UNIT 1077   STATUS:OLD                 
 FORMAT:FORMATTED              ACCESS:SEQUENTIAL          
 ACTION:READ                

 # File generated by Flopy version 3.10.0.dev3 on 06/15/2025 at 07:23:10.

 OPENED model_7.oc
 FILE TYPE:OC6       UNIT 1078   STATUS:OLD                 
 FORMAT:FORMATTED              ACCESS:SEQUENTIAL          
 ACTION:READ                


 OPENED model_7.drn
 FILE TYPE:DRN6               UNIT 1079   STATUS:OLD                 
 FORMAT:FORMATTED              ACCESS:SEQUENTIAL          
 ACTION:READ                

 # File generated by Flopy version 3.10.0.dev3 on 06/15/2025 at 07:23:10.

 OPENED model_7_0.drn
 FILE TYPE:DRN6               UNIT 1080   STATUS:OLD                 
 FORMAT:FORMATTED              ACCESS:SEQUENTIAL          
 ACTION:READ                

 # File generated by Flopy version 3.10.0.dev3 on 06/15/2025 at 07:23:10.
    AUXILIARY  VARIABLE: DEPTH           

 OPENED model_7.rcha
 FILE TYPE:RCH6               UNIT 1082   STATUS:OLD                 
 FORMAT:FORMATTED              ACCESS:SEQUENTIAL          
 ACTION:READ                

 # File generated by Flopy version 3.10.0.dev3 on 06/15/2025 at 07:23:10.

 OPENED model_0.nam
 FILE TYPE:GWF6               UNIT 1083   STATUS:OLD                 
 FORMAT:FORMATTED              ACCESS:SEQUENTIAL          
 ACTION:READ                

 # File generated by Flopy version 3.10.0.dev3 on 06/15/2025 at 07:23:09.

 OPENED model_0.dis
 FILE TYPE:DIS6               UNIT 1084   STATUS:OLD                 
 FORMAT:FORMATTED              ACCESS:SEQUENTIAL          
 ACTION:READ                

 # File generated by Flopy version 3.10.0.dev3 on 06/15/2025 at 07:23:09.

 OPENED model_0.dis
 FILE TYPE:DIS6               UNIT 1085   STATUS:OLD                 
 FORMAT:FORMATTED              ACCESS:SEQUENTIAL          
 ACTION:READ                

 # File generated by Flopy version 3.10.0.dev3 on 06/15/2025 at 07:23:09.

 OPENED model_0.npf
 FILE TYPE:NPF6               UNIT 1086   STATUS:OLD                 
 FORMAT:FORMATTED              ACCESS:SEQUENTIAL          
 ACTION:READ                

 # File generated by Flopy version 3.10.0.dev3 on 06/15/2025 at 07:23:09.

 OPENED model_0.npf
 FILE TYPE:NPF6               UNIT 1087   STATUS:OLD                 
 FORMAT:FORMATTED              ACCESS:SEQUENTIAL          
 ACTION:READ                

 # File generated by Flopy version 3.10.0.dev3 on 06/15/2025 at 07:23:09.

WARNING REPORT:

   1. Already existing variable being added to the HashTable
      -__INPUT__/MODEL_0/NAM/SAVE_FLOWS
   2. Already existing variable being added to the HashTable
      -__INPUT__/MODEL_0/NAM/NEWTON
   3. Already existing variable being added to the HashTable
      -__INPUT__/MODEL_0/NAM/UNDER_RELAXATION
   4. Already existing variable being added to the HashTable
      -__INPUT__/MODEL_0/PKGTYPES
   5. Already existing variable being added to the HashTable
      -__INPUT__/MODEL_0/PKGNAMES
   6. Already existing variable being added to the HashTable
      -__INPUT__/MODEL_0/MEMPATHS
   7. Already existing variable being added to the HashTable
      -__INPUT__/MODEL_0/INUNITS
   8. Already existing variable being added to the HashTable
      -__INPUT__/MODEL_0/DIS/INPUT_FNAME
   9. Already existing variable being added to the HashTable
      -__INPUT__/MODEL_0/IC/INPUT_FNAME
  10. Already existing variable being added to the HashTable
      -__INPUT__/MODEL_0/NPF/INPUT_FNAME
  11. Already existing variable being added to the HashTable
      -__INPUT__/MODEL_0/STO/INPUT_FNAME
  12. Already existing variable being added to the HashTable
      -__INPUT__/MODEL_0/RCHA_0/INPUT_FNAME
  13. Already existing variable being added to the HashTable
      -__INPUT__/MODEL_0/RIVER/INPUT_FNAME
  14. Already existing variable being added to the HashTable
      -__INPUT__/MODEL_0/GWD/INPUT_FNAME
  15. Already existing variable being added to the HashTable
      -__INPUT__/MODEL_0/DIS/INPUT_FNAME
  16. Already existing variable being added to the HashTable
      -__INPUT__/MODEL_0/IC/INPUT_FNAME
  17. Already existing variable being added to the HashTable
      -__INPUT__/MODEL_0/NPF/INPUT_FNAME
  18. Already existing variable being added to the HashTable
      -__INPUT__/MODEL_0/STO/INPUT_FNAME
  19. Already existing variable being added to the HashTable
      -__INPUT__/MODEL_0/RCHA_0/INPUT_FNAME
  20. Already existing variable being added to the HashTable
      -__INPUT__/MODEL_0/RIVER/INPUT_FNAME
  21. Already existing variable being added to the HashTable
      -__INPUT__/MODEL_0/GWD/INPUT_FNAME
  22. Already existing variable being added to the HashTable
      -__INPUT__/MODEL_0/NETCDF_GRID
  23. Already existing variable being added to the HashTable
      -__INPUT__/MODEL_0/NETCDF_FNAME
  24. Already existing variable being added to the HashTable
      -__INPUT__/MODEL_0/NCID
  25. Already existing variable being added to the HashTable
      -__INPUT__/MODEL_0/DIS/XORIGIN
  26. Already existing variable being added to the HashTable
      -__INPUT__/MODEL_0/DIS/YORIGIN
  27. Already existing variable being added to the HashTable
      -__INPUT__/MODEL_0/DIS/NLAY
  28. Already existing variable being added to the HashTable
      -__INPUT__/MODEL_0/DIS/NROW
  29. Already existing variable being added to the HashTable
      -__INPUT__/MODEL_0/DIS/NCOL
  30. Already existing variable being added to the HashTable
      -__INPUT__/MODEL_0/MODEL_SHAPE
  31. Already existing variable being added to the HashTable
      -__INPUT__/MODEL_0/NCELLDIM
  32. Already existing variable being added to the HashTable
      -__INPUT__/MODEL_0/DISENUM
  33. Already existing variable being added to the HashTable
      -__INPUT__/MODEL_0/DIS/DELR
  34. Already existing variable being added to the HashTable
      -__INPUT__/MODEL_0/DIS/DELC
  35. Already existing variable being added to the HashTable
      -__INPUT__/MODEL_0/DIS/TOP
  36. Already existing variable being added to the HashTable
      -__INPUT__/MODEL_0/DIS/BOTM
  37. Already existing variable being added to the HashTable
      -__INPUT__/MODEL_0/DIS/IDOMAIN
  38. Already existing variable being added to the HashTable
      -__INPUT__/MODEL_0/DIS/XORIGIN
  39. Already existing variable being added to the HashTable
      -__INPUT__/MODEL_0/DIS/YORIGIN
  40. Already existing variable being added to the HashTable
      -__INPUT__/MODEL_0/DIS/NLAY
  41. Already existing variable being added to the HashTable
      -__INPUT__/MODEL_0/DIS/NROW
  42. Already existing variable being added to the HashTable
      -__INPUT__/MODEL_0/DIS/NCOL
  43. Already existing variable being added to the HashTable
      -__INPUT__/MODEL_0/MODEL_SHAPE
  44. Already existing variable being added to the HashTable
      -__INPUT__/MODEL_0/NCELLDIM
  45. Already existing variable being added to the HashTable
      -__INPUT__/MODEL_0/DISENUM
  46. Already existing variable being added to the HashTable
      -__INPUT__/MODEL_0/DIS/DELR
  47. Already existing variable being added to the HashTable
      -__INPUT__/MODEL_0/DIS/DELC
  48. Already existing variable being added to the HashTable
      -__INPUT__/MODEL_0/DIS/TOP
  49. Already existing variable being added to the HashTable
      -__INPUT__/MODEL_0/DIS/BOTM
  50. Already existing variable being added to the HashTable
      -__INPUT__/MODEL_0/DIS/IDOMAIN
  51. Already existing variable being added to the HashTable
      -__INPUT__/MODEL_0/NPF/ISAVSPDIS
  52. Already existing variable being added to the HashTable
      -__INPUT__/MODEL_0/NPF/ICELLTYPE
  53. Already existing variable being added to the HashTable
      -__INPUT__/MODEL_0/NPF/K
  54. Already existing variable being added to the HashTable
      -__INPUT__/MODEL_0/NPF/ISAVSPDIS
  55. Already existing variable being added to the HashTable
      -__INPUT__/MODEL_0/NPF/ICELLTYPE
  56. Already existing variable being added to the HashTable
      -__INPUT__/MODEL_0/NPF/K
  57. Already existing variable being added to the HashTable
      -__INPUT__/MODEL_0/STO/IPER
  58. Already existing variable being added to the HashTable
      -__INPUT__/MODEL_0/STO/IONPER

ERROR REPORT:

  1. Could not open "model_0.sto" on unit 1088. File already open on unit
     1006. Specified file status OLD. Specified file format FORMATTED.
     Specified file access SEQUENTIAL. Specified file action READ. IOSTAT
     error number -1. STOP EXECUTION in subroutine openfile().
