Get the name of the MODPATH simulation file.
Read the first two records of the simulation file to get mpnamFile and mplistFile ...
Allocate rectangular unstructured grid component.
Allocate time discretization data component ...
Allocate disMf6Grid.
Read DIS binary grid file.
Read time discretization data component ...
 
 ----------------------------------------------------------
 Cell connection data:
 ----------------------------------------------------------
 Format has two lines for each cell, listed by cell number.
 Line 1: Cell connections
 Line 1: Face assignment codes
 ----------------------------------------------------------
        1       2      31     451
        0   20101   30101   50101
 
        2       1       3      32     452
        0   10101   20101   30101   50101
 
        3       2       4      33     453
        0   10101   20101   30101   50101
 
        4       3       5      34     454
        0   10101   20101   30101   50101
 
        5       4       6      35     455
        0   10101   20101   30101   50101
 
        6       5       7      36     456
        0   10101   20101   30101   50101
 
        7       6       8      37     457
        0   10101   20101   30101   50101
 
        8       7       9      38     458
        0   10101   20101   30101   50101
 
        9       8      10      39     459
        0   10101   20101   30101   50101
 
       10       9      11      40     460
        0   10101   20101   30101   50101
 
       11      10      12      41     461
        0   10101   20101   30101   50101
 
       12      11      13      42     462
        0   10101   20101   30101   50101
 
       13      12      14      43     463
        0   10101   20101   30101   50101
 
       14      13      15      44     464
        0   10101   20101   30101   50101
 
       15      14      16      45     465
        0   10101   20101   30101   50101
 
       16      15      17      46     466
        0   10101   20101   30101   50101
 
       17      16      18      47     467
        0   10101   20101   30101   50101
 
       18      17      19      48     468
        0   10101   20101   30101   50101
 
       19      18      20      49     469
        0   10101   20101   30101   50101
 
       20      19      21      50     470
        0   10101   20101   30101   50101
 
       21      20      22      51     471
        0   10101   20101   30101   50101
 
       22      21      23      52     472
        0   10101   20101   30101   50101
 
       23      22      24      53     473
        0   10101   20101   30101   50101
 
       24      23      25      54     474
        0   10101   20101   30101   50101
 
       25      24      26      55     475
        0   10101   20101   30101   50101
 
       26      25      27      56     476
        0   10101   20101   30101   50101
 
       27      26      28      57     477
        0   10101   20101   30101   50101
 
       28      27      29      58     478
        0   10101   20101   30101   50101
 
       29      28      30      59     479
        0   10101   20101   30101   50101
 
       30      29      60     480
        0   10101   30101   50101
 
       31       1      32      61     481
        0   40101   20101   30101   50101
 
       32       2      31      33      62     482
        0   40101   10101   20101   30101   50101
 
       33       3      32      34      63     483
        0   40101   10101   20101   30101   50101
 
       34       4      33      35      64     484
        0   40101   10101   20101   30101   50101
 
       35       5      34      36      65     485
        0   40101   10101   20101   30101   50101
 
       36       6      35      37      66     486
        0   40101   10101   20101   30101   50101
 
       37       7      36      38      67     487
        0   40101   10101   20101   30101   50101
 
       38       8      37      39      68     488
        0   40101   10101   20101   30101   50101
 
       39       9      38      40      69     489
        0   40101   10101   20101   30101   50101
 
       40      10      39      41      70     490
        0   40101   10101   20101   30101   50101
 
       41      11      40      42      71     491
        0   40101   10101   20101   30101   50101
 
       42      12      41      43      72     492
        0   40101   10101   20101   30101   50101
 
       43      13      42      44      73     493
        0   40101   10101   20101   30101   50101
 
       44      14      43      45      74     494
        0   40101   10101   20101   30101   50101
 
       45      15      44      46      75     495
        0   40101   10101   20101   30101   50101
 
       46      16      45      47      76     496
        0   40101   10101   20101   30101   50101
 
       47      17      46      48      77     497
        0   40101   10101   20101   30101   50101
 
       48      18      47      49      78     498
        0   40101   10101   20101   30101   50101
 
       49      19      48      50      79     499
        0   40101   10101   20101   30101   50101
 
       50      20      49      51      80     500
        0   40101   10101   20101   30101   50101
 
       51      21      50      52      81     501
        0   40101   10101   20101   30101   50101
 
       52      22      51      53      82     502
        0   40101   10101   20101   30101   50101
 
       53      23      52      54      83     503
        0   40101   10101   20101   30101   50101
 
       54      24      53      55      84     504
        0   40101   10101   20101   30101   50101
 
       55      25      54      56      85     505
        0   40101   10101   20101   30101   50101
 
       56      26      55      57      86     506
        0   40101   10101   20101   30101   50101
 
       57      27      56      58      87     507
        0   40101   10101   20101   30101   50101
 
       58      28      57      59      88     508
        0   40101   10101   20101   30101   50101
 
       59      29      58      60      89     509
        0   40101   10101   20101   30101   50101
 
       60      30      59      90     510
        0   40101   10101   30101   50101
 
       61      31      62      91     511
        0   40101   20101   30101   50101
 
       62      32      61      63      92     512
        0   40101   10101   20101   30101   50101
 
       63      33      62      64      93     513
        0   40101   10101   20101   30101   50101
 
       64      34      63      65      94     514
        0   40101   10101   20101   30101   50101
 
       65      35      64      66      95     515
        0   40101   10101   20101   30101   50101
 
       66      36      65      67      96     516
        0   40101   10101   20101   30101   50101
 
       67      37      66      68      97     517
        0   40101   10101   20101   30101   50101
 
       68      38      67      69      98     518
        0   40101   10101   20101   30101   50101
 
       69      39      68      70      99     519
        0   40101   10101   20101   30101   50101
 
       70      40      69      71     100     520
        0   40101   10101   20101   30101   50101
 
       71      41      70      72     101     521
        0   40101   10101   20101   30101   50101
 
       72      42      71      73     102     522
        0   40101   10101   20101   30101   50101
 
       73      43      72      74     103     523
        0   40101   10101   20101   30101   50101
 
       74      44      73      75     104     524
        0   40101   10101   20101   30101   50101
 
       75      45      74      76     105     525
        0   40101   10101   20101   30101   50101
 
       76      46      75      77     106     526
        0   40101   10101   20101   30101   50101
 
       77      47      76      78     107     527
        0   40101   10101   20101   30101   50101
 
       78      48      77      79     108     528
        0   40101   10101   20101   30101   50101
 
       79      49      78      80     109     529
        0   40101   10101   20101   30101   50101
 
       80      50      79      81     110     530
        0   40101   10101   20101   30101   50101
 
       81      51      80      82     111     531
        0   40101   10101   20101   30101   50101
 
       82      52      81      83     112     532
        0   40101   10101   20101   30101   50101
 
       83      53      82      84     113     533
        0   40101   10101   20101   30101   50101
 
       84      54      83      85     114     534
        0   40101   10101   20101   30101   50101
 
       85      55      84      86     115     535
        0   40101   10101   20101   30101   50101
 
       86      56      85      87     116     536
        0   40101   10101   20101   30101   50101
 
       87      57      86      88     117     537
        0   40101   10101   20101   30101   50101
 
       88      58      87      89     118     538
        0   40101   10101   20101   30101   50101
 
       89      59      88      90     119     539
        0   40101   10101   20101   30101   50101
 
       90      60      89     120     540
        0   40101   10101   30101   50101
 
       91      61      92     121     541
        0   40101   20101   30101   50101
 
       92      62      91      93     122     542
        0   40101   10101   20101   30101   50101
 
       93      63      92      94     123     543
        0   40101   10101   20101   30101   50101
 
       94      64      93      95     124     544
        0   40101   10101   20101   30101   50101
 
       95      65      94      96     125     545
        0   40101   10101   20101   30101   50101
 
       96      66      95      97     126     546
        0   40101   10101   20101   30101   50101
 
       97      67      96      98     127     547
        0   40101   10101   20101   30101   50101
 
       98      68      97      99     128     548
        0   40101   10101   20101   30101   50101
 
       99      69      98     100     129     549
        0   40101   10101   20101   30101   50101
 
      100      70      99     101     130     550
        0   40101   10101   20101   30101   50101
 
      101      71     100     102     131     551
        0   40101   10101   20101   30101   50101
 
      102      72     101     103     132     552
        0   40101   10101   20101   30101   50101
 
      103      73     102     104     133     553
        0   40101   10101   20101   30101   50101
 
      104      74     103     105     134     554
        0   40101   10101   20101   30101   50101
 
      105      75     104     106     135     555
        0   40101   10101   20101   30101   50101
 
      106      76     105     107     136     556
        0   40101   10101   20101   30101   50101
 
      107      77     106     108     137     557
        0   40101   10101   20101   30101   50101
 
      108      78     107     109     138     558
        0   40101   10101   20101   30101   50101
 
      109      79     108     110     139     559
        0   40101   10101   20101   30101   50101
 
      110      80     109     111     140     560
        0   40101   10101   20101   30101   50101
 
      111      81     110     112     141     561
        0   40101   10101   20101   30101   50101
 
      112      82     111     113     142     562
        0   40101   10101   20101   30101   50101
 
      113      83     112     114     143     563
        0   40101   10101   20101   30101   50101
 
      114      84     113     115     144     564
        0   40101   10101   20101   30101   50101
 
      115      85     114     116     145     565
        0   40101   10101   20101   30101   50101
 
      116      86     115     117     146     566
        0   40101   10101   20101   30101   50101
 
      117      87     116     118     147     567
        0   40101   10101   20101   30101   50101
 
      118      88     117     119     148     568
        0   40101   10101   20101   30101   50101
 
      119      89     118     120     149     569
        0   40101   10101   20101   30101   50101
 
      120      90     119     150     570
        0   40101   10101   30101   50101
 
      121      91     122     151     571
        0   40101   20101   30101   50101
 
      122      92     121     123     152     572
        0   40101   10101   20101   30101   50101
 
      123      93     122     124     153     573
        0   40101   10101   20101   30101   50101
 
      124      94     123     125     154     574
        0   40101   10101   20101   30101   50101
 
      125      95     124     126     155     575
        0   40101   10101   20101   30101   50101
 
      126      96     125     127     156     576
        0   40101   10101   20101   30101   50101
 
      127      97     126     128     157     577
        0   40101   10101   20101   30101   50101
 
      128      98     127     129     158     578
        0   40101   10101   20101   30101   50101
 
      129      99     128     130     159     579
        0   40101   10101   20101   30101   50101
 
      130     100     129     131     160     580
        0   40101   10101   20101   30101   50101
 
      131     101     130     132     161     581
        0   40101   10101   20101   30101   50101
 
      132     102     131     133     162     582
        0   40101   10101   20101   30101   50101
 
      133     103     132     134     163     583
        0   40101   10101   20101   30101   50101
 
      134     104     133     135     164     584
        0   40101   10101   20101   30101   50101
 
      135     105     134     136     165     585
        0   40101   10101   20101   30101   50101
 
      136     106     135     137     166     586
        0   40101   10101   20101   30101   50101
 
      137     107     136     138     167     587
        0   40101   10101   20101   30101   50101
 
      138     108     137     139     168     588
        0   40101   10101   20101   30101   50101
 
      139     109     138     140     169     589
        0   40101   10101   20101   30101   50101
 
      140     110     139     141     170     590
        0   40101   10101   20101   30101   50101
 
      141     111     140     142     171     591
        0   40101   10101   20101   30101   50101
 
      142     112     141     143     172     592
        0   40101   10101   20101   30101   50101
 
      143     113     142     144     173     593
        0   40101   10101   20101   30101   50101
 
      144     114     143     145     174     594
        0   40101   10101   20101   30101   50101
 
      145     115     144     146     175     595
        0   40101   10101   20101   30101   50101
 
      146     116     145     147     176     596
        0   40101   10101   20101   30101   50101
 
      147     117     146     148     177     597
        0   40101   10101   20101   30101   50101
 
      148     118     147     149     178     598
        0   40101   10101   20101   30101   50101
 
      149     119     148     150     179     599
        0   40101   10101   20101   30101   50101
 
      150     120     149     180     600
        0   40101   10101   30101   50101
 
      151     121     152     181     601
        0   40101   20101   30101   50101
 
      152     122     151     153     182     602
        0   40101   10101   20101   30101   50101
 
      153     123     152     154     183     603
        0   40101   10101   20101   30101   50101
 
      154     124     153     155     184     604
        0   40101   10101   20101   30101   50101
 
      155     125     154     156     185     605
        0   40101   10101   20101   30101   50101
 
      156     126     155     157     186     606
        0   40101   10101   20101   30101   50101
 
      157     127     156     158     187     607
        0   40101   10101   20101   30101   50101
 
      158     128     157     159     188     608
        0   40101   10101   20101   30101   50101
 
      159     129     158     160     189     609
        0   40101   10101   20101   30101   50101
 
      160     130     159     161     190     610
        0   40101   10101   20101   30101   50101
 
      161     131     160     162     191     611
        0   40101   10101   20101   30101   50101
 
      162     132     161     163     192     612
        0   40101   10101   20101   30101   50101
 
      163     133     162     164     193     613
        0   40101   10101   20101   30101   50101
 
      164     134     163     165     194     614
        0   40101   10101   20101   30101   50101
 
      165     135     164     166     195     615
        0   40101   10101   20101   30101   50101
 
      166     136     165     167     196     616
        0   40101   10101   20101   30101   50101
 
      167     137     166     168     197     617
        0   40101   10101   20101   30101   50101
 
      168     138     167     169     198     618
        0   40101   10101   20101   30101   50101
 
      169     139     168     170     199     619
        0   40101   10101   20101   30101   50101
 
      170     140     169     171     200     620
        0   40101   10101   20101   30101   50101
 
      171     141     170     172     201     621
        0   40101   10101   20101   30101   50101
 
      172     142     171     173     202     622
        0   40101   10101   20101   30101   50101
 
      173     143     172     174     203     623
        0   40101   10101   20101   30101   50101
 
      174     144     173     175     204     624
        0   40101   10101   20101   30101   50101
 
      175     145     174     176     205     625
        0   40101   10101   20101   30101   50101
 
      176     146     175     177     206     626
        0   40101   10101   20101   30101   50101
 
      177     147     176     178     207     627
        0   40101   10101   20101   30101   50101
 
      178     148     177     179     208     628
        0   40101   10101   20101   30101   50101
 
      179     149     178     180     209     629
        0   40101   10101   20101   30101   50101
 
      180     150     179     210     630
        0   40101   10101   30101   50101
 
      181     151     182     211     631
        0   40101   20101   30101   50101
 
      182     152     181     183     212     632
        0   40101   10101   20101   30101   50101
 
      183     153     182     184     213     633
        0   40101   10101   20101   30101   50101
 
      184     154     183     185     214     634
        0   40101   10101   20101   30101   50101
 
      185     155     184     186     215     635
        0   40101   10101   20101   30101   50101
 
      186     156     185     187     216     636
        0   40101   10101   20101   30101   50101
 
      187     157     186     188     217     637
        0   40101   10101   20101   30101   50101
 
      188     158     187     189     218     638
        0   40101   10101   20101   30101   50101
 
      189     159     188     190     219     639
        0   40101   10101   20101   30101   50101
 
      190     160     189     191     220     640
        0   40101   10101   20101   30101   50101
 
      191     161     190     192     221     641
        0   40101   10101   20101   30101   50101
 
      192     162     191     193     222     642
        0   40101   10101   20101   30101   50101
 
      193     163     192     194     223     643
        0   40101   10101   20101   30101   50101
 
      194     164     193     195     224     644
        0   40101   10101   20101   30101   50101
 
      195     165     194     196     225     645
        0   40101   10101   20101   30101   50101
 
      196     166     195     197     226     646
        0   40101   10101   20101   30101   50101
 
      197     167     196     198     227     647
        0   40101   10101   20101   30101   50101
 
      198     168     197     199     228     648
        0   40101   10101   20101   30101   50101
 
      199     169     198     200     229     649
        0   40101   10101   20101   30101   50101
 
      200     170     199     201     230     650
        0   40101   10101   20101   30101   50101
 
      201     171     200     202     231     651
        0   40101   10101   20101   30101   50101
 
      202     172     201     203     232     652
        0   40101   10101   20101   30101   50101
 
      203     173     202     204     233     653
        0   40101   10101   20101   30101   50101
 
      204     174     203     205     234     654
        0   40101   10101   20101   30101   50101
 
      205     175     204     206     235     655
        0   40101   10101   20101   30101   50101
 
      206     176     205     207     236     656
        0   40101   10101   20101   30101   50101
 
      207     177     206     208     237     657
        0   40101   10101   20101   30101   50101
 
      208     178     207     209     238     658
        0   40101   10101   20101   30101   50101
 
      209     179     208     210     239     659
        0   40101   10101   20101   30101   50101
 
      210     180     209     240     660
        0   40101   10101   30101   50101
 
      211     181     212     241     661
        0   40101   20101   30101   50101
 
      212     182     211     213     242     662
        0   40101   10101   20101   30101   50101
 
      213     183     212     214     243     663
        0   40101   10101   20101   30101   50101
 
      214     184     213     215     244     664
        0   40101   10101   20101   30101   50101
 
      215     185     214     216     245     665
        0   40101   10101   20101   30101   50101
 
      216     186     215     217     246     666
        0   40101   10101   20101   30101   50101
 
      217     187     216     218     247     667
        0   40101   10101   20101   30101   50101
 
      218     188     217     219     248     668
        0   40101   10101   20101   30101   50101
 
      219     189     218     220     249     669
        0   40101   10101   20101   30101   50101
 
      220     190     219     221     250     670
        0   40101   10101   20101   30101   50101
 
      221     191     220     222     251     671
        0   40101   10101   20101   30101   50101
 
      222     192     221     223     252     672
        0   40101   10101   20101   30101   50101
 
      223     193     222     224     253     673
        0   40101   10101   20101   30101   50101
 
      224     194     223     225     254     674
        0   40101   10101   20101   30101   50101
 
      225     195     224     226     255     675
        0   40101   10101   20101   30101   50101
 
      226     196     225     227     256     676
        0   40101   10101   20101   30101   50101
 
      227     197     226     228     257     677
        0   40101   10101   20101   30101   50101
 
      228     198     227     229     258     678
        0   40101   10101   20101   30101   50101
 
      229     199     228     230     259     679
        0   40101   10101   20101   30101   50101
 
      230     200     229     231     260     680
        0   40101   10101   20101   30101   50101
 
      231     201     230     232     261     681
        0   40101   10101   20101   30101   50101
 
      232     202     231     233     262     682
        0   40101   10101   20101   30101   50101
 
      233     203     232     234     263     683
        0   40101   10101   20101   30101   50101
 
      234     204     233     235     264     684
        0   40101   10101   20101   30101   50101
 
      235     205     234     236     265     685
        0   40101   10101   20101   30101   50101
 
      236     206     235     237     266     686
        0   40101   10101   20101   30101   50101
 
      237     207     236     238     267     687
        0   40101   10101   20101   30101   50101
 
      238     208     237     239     268     688
        0   40101   10101   20101   30101   50101
 
      239     209     238     240     269     689
        0   40101   10101   20101   30101   50101
 
      240     210     239     270     690
        0   40101   10101   30101   50101
 
      241     211     242     271     691
        0   40101   20101   30101   50101
 
      242     212     241     243     272     692
        0   40101   10101   20101   30101   50101
 
      243     213     242     244     273     693
        0   40101   10101   20101   30101   50101
 
      244     214     243     245     274     694
        0   40101   10101   20101   30101   50101
 
      245     215     244     246     275     695
        0   40101   10101   20101   30101   50101
 
      246     216     245     247     276     696
        0   40101   10101   20101   30101   50101
 
      247     217     246     248     277     697
        0   40101   10101   20101   30101   50101
 
      248     218     247     249     278     698
        0   40101   10101   20101   30101   50101
 
      249     219     248     250     279     699
        0   40101   10101   20101   30101   50101
 
      250     220     249     251     280     700
        0   40101   10101   20101   30101   50101
 
      251     221     250     252     281     701
        0   40101   10101   20101   30101   50101
 
      252     222     251     253     282     702
        0   40101   10101   20101   30101   50101
 
      253     223     252     254     283     703
        0   40101   10101   20101   30101   50101
 
      254     224     253     255     284     704
        0   40101   10101   20101   30101   50101
 
      255     225     254     256     285     705
        0   40101   10101   20101   30101   50101
 
      256     226     255     257     286     706
        0   40101   10101   20101   30101   50101
 
      257     227     256     258     287     707
        0   40101   10101   20101   30101   50101
 
      258     228     257     259     288     708
        0   40101   10101   20101   30101   50101
 
      259     229     258     260     289     709
        0   40101   10101   20101   30101   50101
 
      260     230     259     261     290     710
        0   40101   10101   20101   30101   50101
 
      261     231     260     262     291     711
        0   40101   10101   20101   30101   50101
 
      262     232     261     263     292     712
        0   40101   10101   20101   30101   50101
 
      263     233     262     264     293     713
        0   40101   10101   20101   30101   50101
 
      264     234     263     265     294     714
        0   40101   10101   20101   30101   50101
 
      265     235     264     266     295     715
        0   40101   10101   20101   30101   50101
 
      266     236     265     267     296     716
        0   40101   10101   20101   30101   50101
 
      267     237     266     268     297     717
        0   40101   10101   20101   30101   50101
 
      268     238     267     269     298     718
        0   40101   10101   20101   30101   50101
 
      269     239     268     270     299     719
        0   40101   10101   20101   30101   50101
 
      270     240     269     300     720
        0   40101   10101   30101   50101
 
      271     241     272     301     721
        0   40101   20101   30101   50101
 
      272     242     271     273     302     722
        0   40101   10101   20101   30101   50101
 
      273     243     272     274     303     723
        0   40101   10101   20101   30101   50101
 
      274     244     273     275     304     724
        0   40101   10101   20101   30101   50101
 
      275     245     274     276     305     725
        0   40101   10101   20101   30101   50101
 
      276     246     275     277     306     726
        0   40101   10101   20101   30101   50101
 
      277     247     276     278     307     727
        0   40101   10101   20101   30101   50101
 
      278     248     277     279     308     728
        0   40101   10101   20101   30101   50101
 
      279     249     278     280     309     729
        0   40101   10101   20101   30101   50101
 
      280     250     279     281     310     730
        0   40101   10101   20101   30101   50101
 
      281     251     280     282     311     731
        0   40101   10101   20101   30101   50101
 
      282     252     281     283     312     732
        0   40101   10101   20101   30101   50101
 
      283     253     282     284     313     733
        0   40101   10101   20101   30101   50101
 
      284     254     283     285     314     734
        0   40101   10101   20101   30101   50101
 
      285     255     284     286     315     735
        0   40101   10101   20101   30101   50101
 
      286     256     285     287     316     736
        0   40101   10101   20101   30101   50101
 
      287     257     286     288     317     737
        0   40101   10101   20101   30101   50101
 
      288     258     287     289     318     738
        0   40101   10101   20101   30101   50101
 
      289     259     288     290     319     739
        0   40101   10101   20101   30101   50101
 
      290     260     289     291     320     740
        0   40101   10101   20101   30101   50101
 
      291     261     290     292     321     741
        0   40101   10101   20101   30101   50101
 
      292     262     291     293     322     742
        0   40101   10101   20101   30101   50101
 
      293     263     292     294     323     743
        0   40101   10101   20101   30101   50101
 
      294     264     293     295     324     744
        0   40101   10101   20101   30101   50101
 
      295     265     294     296     325     745
        0   40101   10101   20101   30101   50101
 
      296     266     295     297     326     746
        0   40101   10101   20101   30101   50101
 
      297     267     296     298     327     747
        0   40101   10101   20101   30101   50101
 
      298     268     297     299     328     748
        0   40101   10101   20101   30101   50101
 
      299     269     298     300     329     749
        0   40101   10101   20101   30101   50101
 
      300     270     299     330     750
        0   40101   10101   30101   50101
 
      301     271     302     331     751
        0   40101   20101   30101   50101
 
      302     272     301     303     332     752
        0   40101   10101   20101   30101   50101
 
      303     273     302     304     333     753
        0   40101   10101   20101   30101   50101
 
      304     274     303     305     334     754
        0   40101   10101   20101   30101   50101
 
      305     275     304     306     335     755
        0   40101   10101   20101   30101   50101
 
      306     276     305     307     336     756
        0   40101   10101   20101   30101   50101
 
      307     277     306     308     337     757
        0   40101   10101   20101   30101   50101
 
      308     278     307     309     338     758
        0   40101   10101   20101   30101   50101
 
      309     279     308     310     339     759
        0   40101   10101   20101   30101   50101
 
      310     280     309     311     340     760
        0   40101   10101   20101   30101   50101
 
      311     281     310     312     341     761
        0   40101   10101   20101   30101   50101
 
      312     282     311     313     342     762
        0   40101   10101   20101   30101   50101
 
      313     283     312     314     343     763
        0   40101   10101   20101   30101   50101
 
      314     284     313     315     344     764
        0   40101   10101   20101   30101   50101
 
      315     285     314     316     345     765
        0   40101   10101   20101   30101   50101
 
      316     286     315     317     346     766
        0   40101   10101   20101   30101   50101
 
      317     287     316     318     347     767
        0   40101   10101   20101   30101   50101
 
      318     288     317     319     348     768
        0   40101   10101   20101   30101   50101
 
      319     289     318     320     349     769
        0   40101   10101   20101   30101   50101
 
      320     290     319     321     350     770
        0   40101   10101   20101   30101   50101
 
      321     291     320     322     351     771
        0   40101   10101   20101   30101   50101
 
      322     292     321     323     352     772
        0   40101   10101   20101   30101   50101
 
      323     293     322     324     353     773
        0   40101   10101   20101   30101   50101
 
      324     294     323     325     354     774
        0   40101   10101   20101   30101   50101
 
      325     295     324     326     355     775
        0   40101   10101   20101   30101   50101
 
      326     296     325     327     356     776
        0   40101   10101   20101   30101   50101
 
      327     297     326     328     357     777
        0   40101   10101   20101   30101   50101
 
      328     298     327     329     358     778
        0   40101   10101   20101   30101   50101
 
      329     299     328     330     359     779
        0   40101   10101   20101   30101   50101
 
      330     300     329     360     780
        0   40101   10101   30101   50101
 
      331     301     332     361     781
        0   40101   20101   30101   50101
 
      332     302     331     333     362     782
        0   40101   10101   20101   30101   50101
 
      333     303     332     334     363     783
        0   40101   10101   20101   30101   50101
 
      334     304     333     335     364     784
        0   40101   10101   20101   30101   50101
 
      335     305     334     336     365     785
        0   40101   10101   20101   30101   50101
 
      336     306     335     337     366     786
        0   40101   10101   20101   30101   50101
 
      337     307     336     338     367     787
        0   40101   10101   20101   30101   50101
 
      338     308     337     339     368     788
        0   40101   10101   20101   30101   50101
 
      339     309     338     340     369     789
        0   40101   10101   20101   30101   50101
 
      340     310     339     341     370     790
        0   40101   10101   20101   30101   50101
 
      341     311     340     342     371     791
        0   40101   10101   20101   30101   50101
 
      342     312     341     343     372     792
        0   40101   10101   20101   30101   50101
 
      343     313     342     344     373     793
        0   40101   10101   20101   30101   50101
 
      344     314     343     345     374     794
        0   40101   10101   20101   30101   50101
 
      345     315     344     346     375     795
        0   40101   10101   20101   30101   50101
 
      346     316     345     347     376     796
        0   40101   10101   20101   30101   50101
 
      347     317     346     348     377     797
        0   40101   10101   20101   30101   50101
 
      348     318     347     349     378     798
        0   40101   10101   20101   30101   50101
 
      349     319     348     350     379     799
        0   40101   10101   20101   30101   50101
 
      350     320     349     351     380     800
        0   40101   10101   20101   30101   50101
 
      351     321     350     352     381     801
        0   40101   10101   20101   30101   50101
 
      352     322     351     353     382     802
        0   40101   10101   20101   30101   50101
 
      353     323     352     354     383     803
        0   40101   10101   20101   30101   50101
 
      354     324     353     355     384     804
        0   40101   10101   20101   30101   50101
 
      355     325     354     356     385     805
        0   40101   10101   20101   30101   50101
 
      356     326     355     357     386     806
        0   40101   10101   20101   30101   50101
 
      357     327     356     358     387     807
        0   40101   10101   20101   30101   50101
 
      358     328     357     359     388     808
        0   40101   10101   20101   30101   50101
 
      359     329     358     360     389     809
        0   40101   10101   20101   30101   50101
 
      360     330     359     390     810
        0   40101   10101   30101   50101
 
      361     331     362     391     811
        0   40101   20101   30101   50101
 
      362     332     361     363     392     812
        0   40101   10101   20101   30101   50101
 
      363     333     362     364     393     813
        0   40101   10101   20101   30101   50101
 
      364     334     363     365     394     814
        0   40101   10101   20101   30101   50101
 
      365     335     364     366     395     815
        0   40101   10101   20101   30101   50101
 
      366     336     365     367     396     816
        0   40101   10101   20101   30101   50101
 
      367     337     366     368     397     817
        0   40101   10101   20101   30101   50101
 
      368     338     367     369     398     818
        0   40101   10101   20101   30101   50101
 
      369     339     368     370     399     819
        0   40101   10101   20101   30101   50101
 
      370     340     369     371     400     820
        0   40101   10101   20101   30101   50101
 
      371     341     370     372     401     821
        0   40101   10101   20101   30101   50101
 
      372     342     371     373     402     822
        0   40101   10101   20101   30101   50101
 
      373     343     372     374     403     823
        0   40101   10101   20101   30101   50101
 
      374     344     373     375     404     824
        0   40101   10101   20101   30101   50101
 
      375     345     374     376     405     825
        0   40101   10101   20101   30101   50101
 
      376     346     375     377     406     826
        0   40101   10101   20101   30101   50101
 
      377     347     376     378     407     827
        0   40101   10101   20101   30101   50101
 
      378     348     377     379     408     828
        0   40101   10101   20101   30101   50101
 
      379     349     378     380     409     829
        0   40101   10101   20101   30101   50101
 
      380     350     379     381     410     830
        0   40101   10101   20101   30101   50101
 
      381     351     380     382     411     831
        0   40101   10101   20101   30101   50101
 
      382     352     381     383     412     832
        0   40101   10101   20101   30101   50101
 
      383     353     382     384     413     833
        0   40101   10101   20101   30101   50101
 
      384     354     383     385     414     834
        0   40101   10101   20101   30101   50101
 
      385     355     384     386     415     835
        0   40101   10101   20101   30101   50101
 
      386     356     385     387     416     836
        0   40101   10101   20101   30101   50101
 
      387     357     386     388     417     837
        0   40101   10101   20101   30101   50101
 
      388     358     387     389     418     838
        0   40101   10101   20101   30101   50101
 
      389     359     388     390     419     839
        0   40101   10101   20101   30101   50101
 
      390     360     389     420     840
        0   40101   10101   30101   50101
 
      391     361     392     421     841
        0   40101   20101   30101   50101
 
      392     362     391     393     422     842
        0   40101   10101   20101   30101   50101
 
      393     363     392     394     423     843
        0   40101   10101   20101   30101   50101
 
      394     364     393     395     424     844
        0   40101   10101   20101   30101   50101
 
      395     365     394     396     425     845
        0   40101   10101   20101   30101   50101
 
      396     366     395     397     426     846
        0   40101   10101   20101   30101   50101
 
      397     367     396     398     427     847
        0   40101   10101   20101   30101   50101
 
      398     368     397     399     428     848
        0   40101   10101   20101   30101   50101
 
      399     369     398     400     429     849
        0   40101   10101   20101   30101   50101
 
      400     370     399     401     430     850
        0   40101   10101   20101   30101   50101
 
      401     371     400     402     431     851
        0   40101   10101   20101   30101   50101
 
      402     372     401     403     432     852
        0   40101   10101   20101   30101   50101
 
      403     373     402     404     433     853
        0   40101   10101   20101   30101   50101
 
      404     374     403     405     434     854
        0   40101   10101   20101   30101   50101
 
      405     375     404     406     435     855
        0   40101   10101   20101   30101   50101
 
      406     376     405     407     436     856
        0   40101   10101   20101   30101   50101
 
      407     377     406     408     437     857
        0   40101   10101   20101   30101   50101
 
      408     378     407     409     438     858
        0   40101   10101   20101   30101   50101
 
      409     379     408     410     439     859
        0   40101   10101   20101   30101   50101
 
      410     380     409     411     440     860
        0   40101   10101   20101   30101   50101
 
      411     381     410     412     441     861
        0   40101   10101   20101   30101   50101
 
      412     382     411     413     442     862
        0   40101   10101   20101   30101   50101
 
      413     383     412     414     443     863
        0   40101   10101   20101   30101   50101
 
      414     384     413     415     444     864
        0   40101   10101   20101   30101   50101
 
      415     385     414     416     445     865
        0   40101   10101   20101   30101   50101
 
      416     386     415     417     446     866
        0   40101   10101   20101   30101   50101
 
      417     387     416     418     447     867
        0   40101   10101   20101   30101   50101
 
      418     388     417     419     448     868
        0   40101   10101   20101   30101   50101
 
      419     389     418     420     449     869
        0   40101   10101   20101   30101   50101
 
      420     390     419     450     870
        0   40101   10101   30101   50101
 
      421     391     422     871
        0   40101   20101   50101
 
      422     392     421     423     872
        0   40101   10101   20101   50101
 
      423     393     422     424     873
        0   40101   10101   20101   50101
 
      424     394     423     425     874
        0   40101   10101   20101   50101
 
      425     395     424     426     875
        0   40101   10101   20101   50101
 
      426     396     425     427     876
        0   40101   10101   20101   50101
 
      427     397     426     428     877
        0   40101   10101   20101   50101
 
      428     398     427     429     878
        0   40101   10101   20101   50101
 
      429     399     428     430     879
        0   40101   10101   20101   50101
 
      430     400     429     431     880
        0   40101   10101   20101   50101
 
      431     401     430     432     881
        0   40101   10101   20101   50101
 
      432     402     431     433     882
        0   40101   10101   20101   50101
 
      433     403     432     434     883
        0   40101   10101   20101   50101
 
      434     404     433     435     884
        0   40101   10101   20101   50101
 
      435     405     434     436     885
        0   40101   10101   20101   50101
 
      436     406     435     437     886
        0   40101   10101   20101   50101
 
      437     407     436     438     887
        0   40101   10101   20101   50101
 
      438     408     437     439     888
        0   40101   10101   20101   50101
 
      439     409     438     440     889
        0   40101   10101   20101   50101
 
      440     410     439     441     890
        0   40101   10101   20101   50101
 
      441     411     440     442     891
        0   40101   10101   20101   50101
 
      442     412     441     443     892
        0   40101   10101   20101   50101
 
      443     413     442     444     893
        0   40101   10101   20101   50101
 
      444     414     443     445     894
        0   40101   10101   20101   50101
 
      445     415     444     446     895
        0   40101   10101   20101   50101
 
      446     416     445     447     896
        0   40101   10101   20101   50101
 
      447     417     446     448     897
        0   40101   10101   20101   50101
 
      448     418     447     449     898
        0   40101   10101   20101   50101
 
      449     419     448     450     899
        0   40101   10101   20101   50101
 
      450     420     449     900
        0   40101   10101   50101
 
      451       1     452     481     901
        0   60101   20101   30101   50101
 
      452       2     451     453     482     902
        0   60101   10101   20101   30101   50101
 
      453       3     452     454     483     903
        0   60101   10101   20101   30101   50101
 
      454       4     453     455     484     904
        0   60101   10101   20101   30101   50101
 
      455       5     454     456     485     905
        0   60101   10101   20101   30101   50101
 
      456       6     455     457     486     906
        0   60101   10101   20101   30101   50101
 
      457       7     456     458     487     907
        0   60101   10101   20101   30101   50101
 
      458       8     457     459     488     908
        0   60101   10101   20101   30101   50101
 
      459       9     458     460     489     909
        0   60101   10101   20101   30101   50101
 
      460      10     459     461     490     910
        0   60101   10101   20101   30101   50101
 
      461      11     460     462     491     911
        0   60101   10101   20101   30101   50101
 
      462      12     461     463     492     912
        0   60101   10101   20101   30101   50101
 
      463      13     462     464     493     913
        0   60101   10101   20101   30101   50101
 
      464      14     463     465     494     914
        0   60101   10101   20101   30101   50101
 
      465      15     464     466     495     915
        0   60101   10101   20101   30101   50101
 
      466      16     465     467     496     916
        0   60101   10101   20101   30101   50101
 
      467      17     466     468     497     917
        0   60101   10101   20101   30101   50101
 
      468      18     467     469     498     918
        0   60101   10101   20101   30101   50101
 
      469      19     468     470     499     919
        0   60101   10101   20101   30101   50101
 
      470      20     469     471     500     920
        0   60101   10101   20101   30101   50101
 
      471      21     470     472     501     921
        0   60101   10101   20101   30101   50101
 
      472      22     471     473     502     922
        0   60101   10101   20101   30101   50101
 
      473      23     472     474     503     923
        0   60101   10101   20101   30101   50101
 
      474      24     473     475     504     924
        0   60101   10101   20101   30101   50101
 
      475      25     474     476     505     925
        0   60101   10101   20101   30101   50101
 
      476      26     475     477     506     926
        0   60101   10101   20101   30101   50101
 
      477      27     476     478     507     927
        0   60101   10101   20101   30101   50101
 
      478      28     477     479     508     928
        0   60101   10101   20101   30101   50101
 
      479      29     478     480     509     929
        0   60101   10101   20101   30101   50101
 
      480      30     479     510     930
        0   60101   10101   30101   50101
 
      481      31     451     482     511     931
        0   60101   40101   20101   30101   50101
 
      482      32     452     481     483     512     932
        0   60101   40101   10101   20101   30101   50101
 
      483      33     453     482     484     513     933
        0   60101   40101   10101   20101   30101   50101
 
      484      34     454     483     485     514     934
        0   60101   40101   10101   20101   30101   50101
 
      485      35     455     484     486     515     935
        0   60101   40101   10101   20101   30101   50101
 
      486      36     456     485     487     516     936
        0   60101   40101   10101   20101   30101   50101
 
      487      37     457     486     488     517     937
        0   60101   40101   10101   20101   30101   50101
 
      488      38     458     487     489     518     938
        0   60101   40101   10101   20101   30101   50101
 
      489      39     459     488     490     519     939
        0   60101   40101   10101   20101   30101   50101
 
      490      40     460     489     491     520     940
        0   60101   40101   10101   20101   30101   50101
 
      491      41     461     490     492     521     941
        0   60101   40101   10101   20101   30101   50101
 
      492      42     462     491     493     522     942
        0   60101   40101   10101   20101   30101   50101
 
      493      43     463     492     494     523     943
        0   60101   40101   10101   20101   30101   50101
 
      494      44     464     493     495     524     944
        0   60101   40101   10101   20101   30101   50101
 
      495      45     465     494     496     525     945
        0   60101   40101   10101   20101   30101   50101
 
      496      46     466     495     497     526     946
        0   60101   40101   10101   20101   30101   50101
 
      497      47     467     496     498     527     947
        0   60101   40101   10101   20101   30101   50101
 
      498      48     468     497     499     528     948
        0   60101   40101   10101   20101   30101   50101
 
      499      49     469     498     500     529     949
        0   60101   40101   10101   20101   30101   50101
 
      500      50     470     499     501     530     950
        0   60101   40101   10101   20101   30101   50101
 
      501      51     471     500     502     531     951
        0   60101   40101   10101   20101   30101   50101
 
      502      52     472     501     503     532     952
        0   60101   40101   10101   20101   30101   50101
 
      503      53     473     502     504     533     953
        0   60101   40101   10101   20101   30101   50101
 
      504      54     474     503     505     534     954
        0   60101   40101   10101   20101   30101   50101
 
      505      55     475     504     506     535     955
        0   60101   40101   10101   20101   30101   50101
 
      506      56     476     505     507     536     956
        0   60101   40101   10101   20101   30101   50101
 
      507      57     477     506     508     537     957
        0   60101   40101   10101   20101   30101   50101
 
      508      58     478     507     509     538     958
        0   60101   40101   10101   20101   30101   50101
 
      509      59     479     508     510     539     959
        0   60101   40101   10101   20101   30101   50101
 
      510      60     480     509     540     960
        0   60101   40101   10101   30101   50101
 
      511      61     481     512     541     961
        0   60101   40101   20101   30101   50101
 
      512      62     482     511     513     542     962
        0   60101   40101   10101   20101   30101   50101
 
      513      63     483     512     514     543     963
        0   60101   40101   10101   20101   30101   50101
 
      514      64     484     513     515     544     964
        0   60101   40101   10101   20101   30101   50101
 
      515      65     485     514     516     545     965
        0   60101   40101   10101   20101   30101   50101
 
      516      66     486     515     517     546     966
        0   60101   40101   10101   20101   30101   50101
 
      517      67     487     516     518     547     967
        0   60101   40101   10101   20101   30101   50101
 
      518      68     488     517     519     548     968
        0   60101   40101   10101   20101   30101   50101
 
      519      69     489     518     520     549     969
        0   60101   40101   10101   20101   30101   50101
 
      520      70     490     519     521     550     970
        0   60101   40101   10101   20101   30101   50101
 
      521      71     491     520     522     551     971
        0   60101   40101   10101   20101   30101   50101
 
      522      72     492     521     523     552     972
        0   60101   40101   10101   20101   30101   50101
 
      523      73     493     522     524     553     973
        0   60101   40101   10101   20101   30101   50101
 
      524      74     494     523     525     554     974
        0   60101   40101   10101   20101   30101   50101
 
      525      75     495     524     526     555     975
        0   60101   40101   10101   20101   30101   50101
 
      526      76     496     525     527     556     976
        0   60101   40101   10101   20101   30101   50101
 
      527      77     497     526     528     557     977
        0   60101   40101   10101   20101   30101   50101
 
      528      78     498     527     529     558     978
        0   60101   40101   10101   20101   30101   50101
 
      529      79     499     528     530     559     979
        0   60101   40101   10101   20101   30101   50101
 
      530      80     500     529     531     560     980
        0   60101   40101   10101   20101   30101   50101
 
      531      81     501     530     532     561     981
        0   60101   40101   10101   20101   30101   50101
 
      532      82     502     531     533     562     982
        0   60101   40101   10101   20101   30101   50101
 
      533      83     503     532     534     563     983
        0   60101   40101   10101   20101   30101   50101
 
      534      84     504     533     535     564     984
        0   60101   40101   10101   20101   30101   50101
 
      535      85     505     534     536     565     985
        0   60101   40101   10101   20101   30101   50101
 
      536      86     506     535     537     566     986
        0   60101   40101   10101   20101   30101   50101
 
      537      87     507     536     538     567     987
        0   60101   40101   10101   20101   30101   50101
 
      538      88     508     537     539     568     988
        0   60101   40101   10101   20101   30101   50101
 
      539      89     509     538     540     569     989
        0   60101   40101   10101   20101   30101   50101
 
      540      90     510     539     570     990
        0   60101   40101   10101   30101   50101
 
      541      91     511     542     571     991
        0   60101   40101   20101   30101   50101
 
      542      92     512     541     543     572     992
        0   60101   40101   10101   20101   30101   50101
 
      543      93     513     542     544     573     993
        0   60101   40101   10101   20101   30101   50101
 
      544      94     514     543     545     574     994
        0   60101   40101   10101   20101   30101   50101
 
      545      95     515     544     546     575     995
        0   60101   40101   10101   20101   30101   50101
 
      546      96     516     545     547     576     996
        0   60101   40101   10101   20101   30101   50101
 
      547      97     517     546     548     577     997
        0   60101   40101   10101   20101   30101   50101
 
      548      98     518     547     549     578     998
        0   60101   40101   10101   20101   30101   50101
 
      549      99     519     548     550     579     999
        0   60101   40101   10101   20101   30101   50101
 
      550     100     520     549     551     580    1000
        0   60101   40101   10101   20101   30101   50101
 
      551     101     521     550     552     581    1001
        0   60101   40101   10101   20101   30101   50101
 
      552     102     522     551     553     582    1002
        0   60101   40101   10101   20101   30101   50101
 
      553     103     523     552     554     583    1003
        0   60101   40101   10101   20101   30101   50101
 
      554     104     524     553     555     584    1004
        0   60101   40101   10101   20101   30101   50101
 
      555     105     525     554     556     585    1005
        0   60101   40101   10101   20101   30101   50101
 
      556     106     526     555     557     586    1006
        0   60101   40101   10101   20101   30101   50101
 
      557     107     527     556     558     587    1007
        0   60101   40101   10101   20101   30101   50101
 
      558     108     528     557     559     588    1008
        0   60101   40101   10101   20101   30101   50101
 
      559     109     529     558     560     589    1009
        0   60101   40101   10101   20101   30101   50101
 
      560     110     530     559     561     590    1010
        0   60101   40101   10101   20101   30101   50101
 
      561     111     531     560     562     591    1011
        0   60101   40101   10101   20101   30101   50101
 
      562     112     532     561     563     592    1012
        0   60101   40101   10101   20101   30101   50101
 
      563     113     533     562     564     593    1013
        0   60101   40101   10101   20101   30101   50101
 
      564     114     534     563     565     594    1014
        0   60101   40101   10101   20101   30101   50101
 
      565     115     535     564     566     595    1015
        0   60101   40101   10101   20101   30101   50101
 
      566     116     536     565     567     596    1016
        0   60101   40101   10101   20101   30101   50101
 
      567     117     537     566     568     597    1017
        0   60101   40101   10101   20101   30101   50101
 
      568     118     538     567     569     598    1018
        0   60101   40101   10101   20101   30101   50101
 
      569     119     539     568     570     599    1019
        0   60101   40101   10101   20101   30101   50101
 
      570     120     540     569     600    1020
        0   60101   40101   10101   30101   50101
 
      571     121     541     572     601    1021
        0   60101   40101   20101   30101   50101
 
      572     122     542     571     573     602    1022
        0   60101   40101   10101   20101   30101   50101
 
      573     123     543     572     574     603    1023
        0   60101   40101   10101   20101   30101   50101
 
      574     124     544     573     575     604    1024
        0   60101   40101   10101   20101   30101   50101
 
      575     125     545     574     576     605    1025
        0   60101   40101   10101   20101   30101   50101
 
      576     126     546     575     577     606    1026
        0   60101   40101   10101   20101   30101   50101
 
      577     127     547     576     578     607    1027
        0   60101   40101   10101   20101   30101   50101
 
      578     128     548     577     579     608    1028
        0   60101   40101   10101   20101   30101   50101
 
      579     129     549     578     580     609    1029
        0   60101   40101   10101   20101   30101   50101
 
      580     130     550     579     581     610    1030
        0   60101   40101   10101   20101   30101   50101
 
      581     131     551     580     582     611    1031
        0   60101   40101   10101   20101   30101   50101
 
      582     132     552     581     583     612    1032
        0   60101   40101   10101   20101   30101   50101
 
      583     133     553     582     584     613    1033
        0   60101   40101   10101   20101   30101   50101
 
      584     134     554     583     585     614    1034
        0   60101   40101   10101   20101   30101   50101
 
      585     135     555     584     586     615    1035
        0   60101   40101   10101   20101   30101   50101
 
      586     136     556     585     587     616    1036
        0   60101   40101   10101   20101   30101   50101
 
      587     137     557     586     588     617    1037
        0   60101   40101   10101   20101   30101   50101
 
      588     138     558     587     589     618    1038
        0   60101   40101   10101   20101   30101   50101
 
      589     139     559     588     590     619    1039
        0   60101   40101   10101   20101   30101   50101
 
      590     140     560     589     591     620    1040
        0   60101   40101   10101   20101   30101   50101
 
      591     141     561     590     592     621    1041
        0   60101   40101   10101   20101   30101   50101
 
      592     142     562     591     593     622    1042
        0   60101   40101   10101   20101   30101   50101
 
      593     143     563     592     594     623    1043
        0   60101   40101   10101   20101   30101   50101
 
      594     144     564     593     595     624    1044
        0   60101   40101   10101   20101   30101   50101
 
      595     145     565     594     596     625    1045
        0   60101   40101   10101   20101   30101   50101
 
      596     146     566     595     597     626    1046
        0   60101   40101   10101   20101   30101   50101
 
      597     147     567     596     598     627    1047
        0   60101   40101   10101   20101   30101   50101
 
      598     148     568     597     599     628    1048
        0   60101   40101   10101   20101   30101   50101
 
      599     149     569     598     600     629    1049
        0   60101   40101   10101   20101   30101   50101
 
      600     150     570     599     630    1050
        0   60101   40101   10101   30101   50101
 
      601     151     571     602     631    1051
        0   60101   40101   20101   30101   50101
 
      602     152     572     601     603     632    1052
        0   60101   40101   10101   20101   30101   50101
 
      603     153     573     602     604     633    1053
        0   60101   40101   10101   20101   30101   50101
 
      604     154     574     603     605     634    1054
        0   60101   40101   10101   20101   30101   50101
 
      605     155     575     604     606     635    1055
        0   60101   40101   10101   20101   30101   50101
 
      606     156     576     605     607     636    1056
        0   60101   40101   10101   20101   30101   50101
 
      607     157     577     606     608     637    1057
        0   60101   40101   10101   20101   30101   50101
 
      608     158     578     607     609     638    1058
        0   60101   40101   10101   20101   30101   50101
 
      609     159     579     608     610     639    1059
        0   60101   40101   10101   20101   30101   50101
 
      610     160     580     609     611     640    1060
        0   60101   40101   10101   20101   30101   50101
 
      611     161     581     610     612     641    1061
        0   60101   40101   10101   20101   30101   50101
 
      612     162     582     611     613     642    1062
        0   60101   40101   10101   20101   30101   50101
 
      613     163     583     612     614     643    1063
        0   60101   40101   10101   20101   30101   50101
 
      614     164     584     613     615     644    1064
        0   60101   40101   10101   20101   30101   50101
 
      615     165     585     614     616     645    1065
        0   60101   40101   10101   20101   30101   50101
 
      616     166     586     615     617     646    1066
        0   60101   40101   10101   20101   30101   50101
 
      617     167     587     616     618     647    1067
        0   60101   40101   10101   20101   30101   50101
 
      618     168     588     617     619     648    1068
        0   60101   40101   10101   20101   30101   50101
 
      619     169     589     618     620     649    1069
        0   60101   40101   10101   20101   30101   50101
 
      620     170     590     619     621     650    1070
        0   60101   40101   10101   20101   30101   50101
 
      621     171     591     620     622     651    1071
        0   60101   40101   10101   20101   30101   50101
 
      622     172     592     621     623     652    1072
        0   60101   40101   10101   20101   30101   50101
 
      623     173     593     622     624     653    1073
        0   60101   40101   10101   20101   30101   50101
 
      624     174     594     623     625     654    1074
        0   60101   40101   10101   20101   30101   50101
 
      625     175     595     624     626     655    1075
        0   60101   40101   10101   20101   30101   50101
 
      626     176     596     625     627     656    1076
        0   60101   40101   10101   20101   30101   50101
 
      627     177     597     626     628     657    1077
        0   60101   40101   10101   20101   30101   50101
 
      628     178     598     627     629     658    1078
        0   60101   40101   10101   20101   30101   50101
 
      629     179     599     628     630     659    1079
        0   60101   40101   10101   20101   30101   50101
 
      630     180     600     629     660    1080
        0   60101   40101   10101   30101   50101
 
      631     181     601     632     661    1081
        0   60101   40101   20101   30101   50101
 
      632     182     602     631     633     662    1082
        0   60101   40101   10101   20101   30101   50101
 
      633     183     603     632     634     663    1083
        0   60101   40101   10101   20101   30101   50101
 
      634     184     604     633     635     664    1084
        0   60101   40101   10101   20101   30101   50101
 
      635     185     605     634     636     665    1085
        0   60101   40101   10101   20101   30101   50101
 
      636     186     606     635     637     666    1086
        0   60101   40101   10101   20101   30101   50101
 
      637     187     607     636     638     667    1087
        0   60101   40101   10101   20101   30101   50101
 
      638     188     608     637     639     668    1088
        0   60101   40101   10101   20101   30101   50101
 
      639     189     609     638     640     669    1089
        0   60101   40101   10101   20101   30101   50101
 
      640     190     610     639     641     670    1090
        0   60101   40101   10101   20101   30101   50101
 
      641     191     611     640     642     671    1091
        0   60101   40101   10101   20101   30101   50101
 
      642     192     612     641     643     672    1092
        0   60101   40101   10101   20101   30101   50101
 
      643     193     613     642     644     673    1093
        0   60101   40101   10101   20101   30101   50101
 
      644     194     614     643     645     674    1094
        0   60101   40101   10101   20101   30101   50101
 
      645     195     615     644     646     675    1095
        0   60101   40101   10101   20101   30101   50101
 
      646     196     616     645     647     676    1096
        0   60101   40101   10101   20101   30101   50101
 
      647     197     617     646     648     677    1097
        0   60101   40101   10101   20101   30101   50101
 
      648     198     618     647     649     678    1098
        0   60101   40101   10101   20101   30101   50101
 
      649     199     619     648     650     679    1099
        0   60101   40101   10101   20101   30101   50101
 
      650     200     620     649     651     680    1100
        0   60101   40101   10101   20101   30101   50101
 
      651     201     621     650     652     681    1101
        0   60101   40101   10101   20101   30101   50101
 
      652     202     622     651     653     682    1102
        0   60101   40101   10101   20101   30101   50101
 
      653     203     623     652     654     683    1103
        0   60101   40101   10101   20101   30101   50101
 
      654     204     624     653     655     684    1104
        0   60101   40101   10101   20101   30101   50101
 
      655     205     625     654     656     685    1105
        0   60101   40101   10101   20101   30101   50101
 
      656     206     626     655     657     686    1106
        0   60101   40101   10101   20101   30101   50101
 
      657     207     627     656     658     687    1107
        0   60101   40101   10101   20101   30101   50101
 
      658     208     628     657     659     688    1108
        0   60101   40101   10101   20101   30101   50101
 
      659     209     629     658     660     689    1109
        0   60101   40101   10101   20101   30101   50101
 
      660     210     630     659     690    1110
        0   60101   40101   10101   30101   50101
 
      661     211     631     662     691    1111
        0   60101   40101   20101   30101   50101
 
      662     212     632     661     663     692    1112
        0   60101   40101   10101   20101   30101   50101
 
      663     213     633     662     664     693    1113
        0   60101   40101   10101   20101   30101   50101
 
      664     214     634     663     665     694    1114
        0   60101   40101   10101   20101   30101   50101
 
      665     215     635     664     666     695    1115
        0   60101   40101   10101   20101   30101   50101
 
      666     216     636     665     667     696    1116
        0   60101   40101   10101   20101   30101   50101
 
      667     217     637     666     668     697    1117
        0   60101   40101   10101   20101   30101   50101
 
      668     218     638     667     669     698    1118
        0   60101   40101   10101   20101   30101   50101
 
      669     219     639     668     670     699    1119
        0   60101   40101   10101   20101   30101   50101
 
      670     220     640     669     671     700    1120
        0   60101   40101   10101   20101   30101   50101
 
      671     221     641     670     672     701    1121
        0   60101   40101   10101   20101   30101   50101
 
      672     222     642     671     673     702    1122
        0   60101   40101   10101   20101   30101   50101
 
      673     223     643     672     674     703    1123
        0   60101   40101   10101   20101   30101   50101
 
      674     224     644     673     675     704    1124
        0   60101   40101   10101   20101   30101   50101
 
      675     225     645     674     676     705    1125
        0   60101   40101   10101   20101   30101   50101
 
      676     226     646     675     677     706    1126
        0   60101   40101   10101   20101   30101   50101
 
      677     227     647     676     678     707    1127
        0   60101   40101   10101   20101   30101   50101
 
      678     228     648     677     679     708    1128
        0   60101   40101   10101   20101   30101   50101
 
      679     229     649     678     680     709    1129
        0   60101   40101   10101   20101   30101   50101
 
      680     230     650     679     681     710    1130
        0   60101   40101   10101   20101   30101   50101
 
      681     231     651     680     682     711    1131
        0   60101   40101   10101   20101   30101   50101
 
      682     232     652     681     683     712    1132
        0   60101   40101   10101   20101   30101   50101
 
      683     233     653     682     684     713    1133
        0   60101   40101   10101   20101   30101   50101
 
      684     234     654     683     685     714    1134
        0   60101   40101   10101   20101   30101   50101
 
      685     235     655     684     686     715    1135
        0   60101   40101   10101   20101   30101   50101
 
      686     236     656     685     687     716    1136
        0   60101   40101   10101   20101   30101   50101
 
      687     237     657     686     688     717    1137
        0   60101   40101   10101   20101   30101   50101
 
      688     238     658     687     689     718    1138
        0   60101   40101   10101   20101   30101   50101
 
      689     239     659     688     690     719    1139
        0   60101   40101   10101   20101   30101   50101
 
      690     240     660     689     720    1140
        0   60101   40101   10101   30101   50101
 
      691     241     661     692     721    1141
        0   60101   40101   20101   30101   50101
 
      692     242     662     691     693     722    1142
        0   60101   40101   10101   20101   30101   50101
 
      693     243     663     692     694     723    1143
        0   60101   40101   10101   20101   30101   50101
 
      694     244     664     693     695     724    1144
        0   60101   40101   10101   20101   30101   50101
 
      695     245     665     694     696     725    1145
        0   60101   40101   10101   20101   30101   50101
 
      696     246     666     695     697     726    1146
        0   60101   40101   10101   20101   30101   50101
 
      697     247     667     696     698     727    1147
        0   60101   40101   10101   20101   30101   50101
 
      698     248     668     697     699     728    1148
        0   60101   40101   10101   20101   30101   50101
 
      699     249     669     698     700     729    1149
        0   60101   40101   10101   20101   30101   50101
 
      700     250     670     699     701     730    1150
        0   60101   40101   10101   20101   30101   50101
 
      701     251     671     700     702     731    1151
        0   60101   40101   10101   20101   30101   50101
 
      702     252     672     701     703     732    1152
        0   60101   40101   10101   20101   30101   50101
 
      703     253     673     702     704     733    1153
        0   60101   40101   10101   20101   30101   50101
 
      704     254     674     703     705     734    1154
        0   60101   40101   10101   20101   30101   50101
 
      705     255     675     704     706     735    1155
        0   60101   40101   10101   20101   30101   50101
 
      706     256     676     705     707     736    1156
        0   60101   40101   10101   20101   30101   50101
 
      707     257     677     706     708     737    1157
        0   60101   40101   10101   20101   30101   50101
 
      708     258     678     707     709     738    1158
        0   60101   40101   10101   20101   30101   50101
 
      709     259     679     708     710     739    1159
        0   60101   40101   10101   20101   30101   50101
 
      710     260     680     709     711     740    1160
        0   60101   40101   10101   20101   30101   50101
 
      711     261     681     710     712     741    1161
        0   60101   40101   10101   20101   30101   50101
 
      712     262     682     711     713     742    1162
        0   60101   40101   10101   20101   30101   50101
 
      713     263     683     712     714     743    1163
        0   60101   40101   10101   20101   30101   50101
 
      714     264     684     713     715     744    1164
        0   60101   40101   10101   20101   30101   50101
 
      715     265     685     714     716     745    1165
        0   60101   40101   10101   20101   30101   50101
 
      716     266     686     715     717     746    1166
        0   60101   40101   10101   20101   30101   50101
 
      717     267     687     716     718     747    1167
        0   60101   40101   10101   20101   30101   50101
 
      718     268     688     717     719     748    1168
        0   60101   40101   10101   20101   30101   50101
 
      719     269     689     718     720     749    1169
        0   60101   40101   10101   20101   30101   50101
 
      720     270     690     719     750    1170
        0   60101   40101   10101   30101   50101
 
      721     271     691     722     751    1171
        0   60101   40101   20101   30101   50101
 
      722     272     692     721     723     752    1172
        0   60101   40101   10101   20101   30101   50101
 
      723     273     693     722     724     753    1173
        0   60101   40101   10101   20101   30101   50101
 
      724     274     694     723     725     754    1174
        0   60101   40101   10101   20101   30101   50101
 
      725     275     695     724     726     755    1175
        0   60101   40101   10101   20101   30101   50101
 
      726     276     696     725     727     756    1176
        0   60101   40101   10101   20101   30101   50101
 
      727     277     697     726     728     757    1177
        0   60101   40101   10101   20101   30101   50101
 
      728     278     698     727     729     758    1178
        0   60101   40101   10101   20101   30101   50101
 
      729     279     699     728     730     759    1179
        0   60101   40101   10101   20101   30101   50101
 
      730     280     700     729     731     760    1180
        0   60101   40101   10101   20101   30101   50101
 
      731     281     701     730     732     761    1181
        0   60101   40101   10101   20101   30101   50101
 
      732     282     702     731     733     762    1182
        0   60101   40101   10101   20101   30101   50101
 
      733     283     703     732     734     763    1183
        0   60101   40101   10101   20101   30101   50101
 
      734     284     704     733     735     764    1184
        0   60101   40101   10101   20101   30101   50101
 
      735     285     705     734     736     765    1185
        0   60101   40101   10101   20101   30101   50101
 
      736     286     706     735     737     766    1186
        0   60101   40101   10101   20101   30101   50101
 
      737     287     707     736     738     767    1187
        0   60101   40101   10101   20101   30101   50101
 
      738     288     708     737     739     768    1188
        0   60101   40101   10101   20101   30101   50101
 
      739     289     709     738     740     769    1189
        0   60101   40101   10101   20101   30101   50101
 
      740     290     710     739     741     770    1190
        0   60101   40101   10101   20101   30101   50101
 
      741     291     711     740     742     771    1191
        0   60101   40101   10101   20101   30101   50101
 
      742     292     712     741     743     772    1192
        0   60101   40101   10101   20101   30101   50101
 
      743     293     713     742     744     773    1193
        0   60101   40101   10101   20101   30101   50101
 
      744     294     714     743     745     774    1194
        0   60101   40101   10101   20101   30101   50101
 
      745     295     715     744     746     775    1195
        0   60101   40101   10101   20101   30101   50101
 
      746     296     716     745     747     776    1196
        0   60101   40101   10101   20101   30101   50101
 
      747     297     717     746     748     777    1197
        0   60101   40101   10101   20101   30101   50101
 
      748     298     718     747     749     778    1198
        0   60101   40101   10101   20101   30101   50101
 
      749     299     719     748     750     779    1199
        0   60101   40101   10101   20101   30101   50101
 
      750     300     720     749     780    1200
        0   60101   40101   10101   30101   50101
 
      751     301     721     752     781    1201
        0   60101   40101   20101   30101   50101
 
      752     302     722     751     753     782    1202
        0   60101   40101   10101   20101   30101   50101
 
      753     303     723     752     754     783    1203
[...]
     1156     706    1126    1155    1157    1186
        0   60101   40101   10101   20101   30101
 
     1157     707    1127    1156    1158    1187
        0   60101   40101   10101   20101   30101
 
     1158     708    1128    1157    1159    1188
        0   60101   40101   10101   20101   30101
 
     1159     709    1129    1158    1160    1189
        0   60101   40101   10101   20101   30101
 
     1160     710    1130    1159    1161    1190
        0   60101   40101   10101   20101   30101
 
     1161     711    1131    1160    1162    1191
        0   60101   40101   10101   20101   30101
 
     1162     712    1132    1161    1163    1192
        0   60101   40101   10101   20101   30101
 
     1163     713    1133    1162    1164    1193
        0   60101   40101   10101   20101   30101
 
     1164     714    1134    1163    1165    1194
        0   60101   40101   10101   20101   30101
 
     1165     715    1135    1164    1166    1195
        0   60101   40101   10101   20101   30101
 
     1166     716    1136    1165    1167    1196
        0   60101   40101   10101   20101   30101
 
     1167     717    1137    1166    1168    1197
        0   60101   40101   10101   20101   30101
 
     1168     718    1138    1167    1169    1198
        0   60101   40101   10101   20101   30101
 
     1169     719    1139    1168    1170    1199
        0   60101   40101   10101   20101   30101
 
     1170     720    1140    1169    1200
        0   60101   40101   10101   30101
 
     1171     721    1141    1172    1201
        0   60101   40101   20101   30101
 
     1172     722    1142    1171    1173    1202
        0   60101   40101   10101   20101   30101
 
     1173     723    1143    1172    1174    1203
        0   60101   40101   10101   20101   30101
 
     1174     724    1144    1173    1175    1204
        0   60101   40101   10101   20101   30101
 
     1175     725    1145    1174    1176    1205
        0   60101   40101   10101   20101   30101
 
     1176     726    1146    1175    1177    1206
        0   60101   40101   10101   20101   30101
 
     1177     727    1147    1176    1178    1207
        0   60101   40101   10101   20101   30101
 
     1178     728    1148    1177    1179    1208
        0   60101   40101   10101   20101   30101
 
     1179     729    1149    1178    1180    1209
        0   60101   40101   10101   20101   30101
 
     1180     730    1150    1179    1181    1210
        0   60101   40101   10101   20101   30101
 
     1181     731    1151    1180    1182    1211
        0   60101   40101   10101   20101   30101
 
     1182     732    1152    1181    1183    1212
        0   60101   40101   10101   20101   30101
 
     1183     733    1153    1182    1184    1213
        0   60101   40101   10101   20101   30101
 
     1184     734    1154    1183    1185    1214
        0   60101   40101   10101   20101   30101
 
     1185     735    1155    1184    1186    1215
        0   60101   40101   10101   20101   30101
 
     1186     736    1156    1185    1187    1216
        0   60101   40101   10101   20101   30101
 
     1187     737    1157    1186    1188    1217
        0   60101   40101   10101   20101   30101
 
     1188     738    1158    1187    1189    1218
        0   60101   40101   10101   20101   30101
 
     1189     739    1159    1188    1190    1219
        0   60101   40101   10101   20101   30101
 
     1190     740    1160    1189    1191    1220
        0   60101   40101   10101   20101   30101
 
     1191     741    1161    1190    1192    1221
        0   60101   40101   10101   20101   30101
 
     1192     742    1162    1191    1193    1222
        0   60101   40101   10101   20101   30101
 
     1193     743    1163    1192    1194    1223
        0   60101   40101   10101   20101   30101
 
     1194     744    1164    1193    1195    1224
        0   60101   40101   10101   20101   30101
 
     1195     745    1165    1194    1196    1225
        0   60101   40101   10101   20101   30101
 
     1196     746    1166    1195    1197    1226
        0   60101   40101   10101   20101   30101
 
     1197     747    1167    1196    1198    1227
        0   60101   40101   10101   20101   30101
 
     1198     748    1168    1197    1199    1228
        0   60101   40101   10101   20101   30101
 
     1199     749    1169    1198    1200    1229
        0   60101   40101   10101   20101   30101
 
     1200     750    1170    1199    1230
        0   60101   40101   10101   30101
 
     1201     751    1171    1202    1231
        0   60101   40101   20101   30101
 
     1202     752    1172    1201    1203    1232
        0   60101   40101   10101   20101   30101
 
     1203     753    1173    1202    1204    1233
        0   60101   40101   10101   20101   30101
 
     1204     754    1174    1203    1205    1234
        0   60101   40101   10101   20101   30101
 
     1205     755    1175    1204    1206    1235
        0   60101   40101   10101   20101   30101
 
     1206     756    1176    1205    1207    1236
        0   60101   40101   10101   20101   30101
 
     1207     757    1177    1206    1208    1237
        0   60101   40101   10101   20101   30101
 
     1208     758    1178    1207    1209    1238
        0   60101   40101   10101   20101   30101
 
     1209     759    1179    1208    1210    1239
        0   60101   40101   10101   20101   30101
 
     1210     760    1180    1209    1211    1240
        0   60101   40101   10101   20101   30101
 
     1211     761    1181    1210    1212    1241
        0   60101   40101   10101   20101   30101
 
     1212     762    1182    1211    1213    1242
        0   60101   40101   10101   20101   30101
 
     1213     763    1183    1212    1214    1243
        0   60101   40101   10101   20101   30101
 
     1214     764    1184    1213    1215    1244
        0   60101   40101   10101   20101   30101
 
     1215     765    1185    1214    1216    1245
        0   60101   40101   10101   20101   30101
 
     1216     766    1186    1215    1217    1246
        0   60101   40101   10101   20101   30101
 
     1217     767    1187    1216    1218    1247
        0   60101   40101   10101   20101   30101
 
     1218     768    1188    1217    1219    1248
        0   60101   40101   10101   20101   30101
 
     1219     769    1189    1218    1220    1249
        0   60101   40101   10101   20101   30101
 
     1220     770    1190    1219    1221    1250
        0   60101   40101   10101   20101   30101
 
     1221     771    1191    1220    1222    1251
        0   60101   40101   10101   20101   30101
 
     1222     772    1192    1221    1223    1252
        0   60101   40101   10101   20101   30101
 
     1223     773    1193    1222    1224    1253
        0   60101   40101   10101   20101   30101
 
     1224     774    1194    1223    1225    1254
        0   60101   40101   10101   20101   30101
 
     1225     775    1195    1224    1226    1255
        0   60101   40101   10101   20101   30101
 
     1226     776    1196    1225    1227    1256
        0   60101   40101   10101   20101   30101
 
     1227     777    1197    1226    1228    1257
        0   60101   40101   10101   20101   30101
 
     1228     778    1198    1227    1229    1258
        0   60101   40101   10101   20101   30101
 
     1229     779    1199    1228    1230    1259
        0   60101   40101   10101   20101   30101
 
     1230     780    1200    1229    1260
        0   60101   40101   10101   30101
 
     1231     781    1201    1232    1261
        0   60101   40101   20101   30101
 
     1232     782    1202    1231    1233    1262
        0   60101   40101   10101   20101   30101
 
     1233     783    1203    1232    1234    1263
        0   60101   40101   10101   20101   30101
 
     1234     784    1204    1233    1235    1264
        0   60101   40101   10101   20101   30101
 
     1235     785    1205    1234    1236    1265
        0   60101   40101   10101   20101   30101
 
     1236     786    1206    1235    1237    1266
        0   60101   40101   10101   20101   30101
 
     1237     787    1207    1236    1238    1267
        0   60101   40101   10101   20101   30101
 
     1238     788    1208    1237    1239    1268
        0   60101   40101   10101   20101   30101
 
     1239     789    1209    1238    1240    1269
        0   60101   40101   10101   20101   30101
 
     1240     790    1210    1239    1241    1270
        0   60101   40101   10101   20101   30101
 
     1241     791    1211    1240    1242    1271
        0   60101   40101   10101   20101   30101
 
     1242     792    1212    1241    1243    1272
        0   60101   40101   10101   20101   30101
 
     1243     793    1213    1242    1244    1273
        0   60101   40101   10101   20101   30101
 
     1244     794    1214    1243    1245    1274
        0   60101   40101   10101   20101   30101
 
     1245     795    1215    1244    1246    1275
        0   60101   40101   10101   20101   30101
 
     1246     796    1216    1245    1247    1276
        0   60101   40101   10101   20101   30101
 
     1247     797    1217    1246    1248    1277
        0   60101   40101   10101   20101   30101
 
     1248     798    1218    1247    1249    1278
        0   60101   40101   10101   20101   30101
 
     1249     799    1219    1248    1250    1279
        0   60101   40101   10101   20101   30101
 
     1250     800    1220    1249    1251    1280
        0   60101   40101   10101   20101   30101
 
     1251     801    1221    1250    1252    1281
        0   60101   40101   10101   20101   30101
 
     1252     802    1222    1251    1253    1282
        0   60101   40101   10101   20101   30101
 
     1253     803    1223    1252    1254    1283
        0   60101   40101   10101   20101   30101
 
     1254     804    1224    1253    1255    1284
        0   60101   40101   10101   20101   30101
 
     1255     805    1225    1254    1256    1285
        0   60101   40101   10101   20101   30101
 
     1256     806    1226    1255    1257    1286
        0   60101   40101   10101   20101   30101
 
     1257     807    1227    1256    1258    1287
        0   60101   40101   10101   20101   30101
 
     1258     808    1228    1257    1259    1288
        0   60101   40101   10101   20101   30101
 
     1259     809    1229    1258    1260    1289
        0   60101   40101   10101   20101   30101
 
     1260     810    1230    1259    1290
        0   60101   40101   10101   30101
 
     1261     811    1231    1262    1291
        0   60101   40101   20101   30101
 
     1262     812    1232    1261    1263    1292
        0   60101   40101   10101   20101   30101
 
     1263     813    1233    1262    1264    1293
        0   60101   40101   10101   20101   30101
 
     1264     814    1234    1263    1265    1294
        0   60101   40101   10101   20101   30101
 
     1265     815    1235    1264    1266    1295
        0   60101   40101   10101   20101   30101
 
     1266     816    1236    1265    1267    1296
        0   60101   40101   10101   20101   30101
 
     1267     817    1237    1266    1268    1297
        0   60101   40101   10101   20101   30101
 
     1268     818    1238    1267    1269    1298
        0   60101   40101   10101   20101   30101
 
     1269     819    1239    1268    1270    1299
        0   60101   40101   10101   20101   30101
 
     1270     820    1240    1269    1271    1300
        0   60101   40101   10101   20101   30101
 
     1271     821    1241    1270    1272    1301
        0   60101   40101   10101   20101   30101
 
     1272     822    1242    1271    1273    1302
        0   60101   40101   10101   20101   30101
 
     1273     823    1243    1272    1274    1303
        0   60101   40101   10101   20101   30101
 
     1274     824    1244    1273    1275    1304
        0   60101   40101   10101   20101   30101
 
     1275     825    1245    1274    1276    1305
        0   60101   40101   10101   20101   30101
 
     1276     826    1246    1275    1277    1306
        0   60101   40101   10101   20101   30101
 
     1277     827    1247    1276    1278    1307
        0   60101   40101   10101   20101   30101
 
     1278     828    1248    1277    1279    1308
        0   60101   40101   10101   20101   30101
 
     1279     829    1249    1278    1280    1309
        0   60101   40101   10101   20101   30101
 
     1280     830    1250    1279    1281    1310
        0   60101   40101   10101   20101   30101
 
     1281     831    1251    1280    1282    1311
        0   60101   40101   10101   20101   30101
 
     1282     832    1252    1281    1283    1312
        0   60101   40101   10101   20101   30101
 
     1283     833    1253    1282    1284    1313
        0   60101   40101   10101   20101   30101
 
     1284     834    1254    1283    1285    1314
        0   60101   40101   10101   20101   30101
 
     1285     835    1255    1284    1286    1315
        0   60101   40101   10101   20101   30101
 
     1286     836    1256    1285    1287    1316
        0   60101   40101   10101   20101   30101
 
     1287     837    1257    1286    1288    1317
        0   60101   40101   10101   20101   30101
 
     1288     838    1258    1287    1289    1318
        0   60101   40101   10101   20101   30101
 
     1289     839    1259    1288    1290    1319
        0   60101   40101   10101   20101   30101
 
     1290     840    1260    1289    1320
        0   60101   40101   10101   30101
 
     1291     841    1261    1292    1321
        0   60101   40101   20101   30101
 
     1292     842    1262    1291    1293    1322
        0   60101   40101   10101   20101   30101
 
     1293     843    1263    1292    1294    1323
        0   60101   40101   10101   20101   30101
 
     1294     844    1264    1293    1295    1324
        0   60101   40101   10101   20101   30101
 
     1295     845    1265    1294    1296    1325
        0   60101   40101   10101   20101   30101
 
     1296     846    1266    1295    1297    1326
        0   60101   40101   10101   20101   30101
 
     1297     847    1267    1296    1298    1327
        0   60101   40101   10101   20101   30101
 
     1298     848    1268    1297    1299    1328
        0   60101   40101   10101   20101   30101
 
     1299     849    1269    1298    1300    1329
        0   60101   40101   10101   20101   30101
 
     1300     850    1270    1299    1301    1330
        0   60101   40101   10101   20101   30101
 
     1301     851    1271    1300    1302    1331
        0   60101   40101   10101   20101   30101
 
     1302     852    1272    1301    1303    1332
        0   60101   40101   10101   20101   30101
 
     1303     853    1273    1302    1304    1333
        0   60101   40101   10101   20101   30101
 
     1304     854    1274    1303    1305    1334
        0   60101   40101   10101   20101   30101
 
     1305     855    1275    1304    1306    1335
        0   60101   40101   10101   20101   30101
 
     1306     856    1276    1305    1307    1336
        0   60101   40101   10101   20101   30101
 
     1307     857    1277    1306    1308    1337
        0   60101   40101   10101   20101   30101
 
     1308     858    1278    1307    1309    1338
        0   60101   40101   10101   20101   30101
 
     1309     859    1279    1308    1310    1339
        0   60101   40101   10101   20101   30101
 
     1310     860    1280    1309    1311    1340
        0   60101   40101   10101   20101   30101
 
     1311     861    1281    1310    1312    1341
        0   60101   40101   10101   20101   30101
 
     1312     862    1282    1311    1313    1342
        0   60101   40101   10101   20101   30101
 
     1313     863    1283    1312    1314    1343
        0   60101   40101   10101   20101   30101
 
     1314     864    1284    1313    1315    1344
        0   60101   40101   10101   20101   30101
 
     1315     865    1285    1314    1316    1345
        0   60101   40101   10101   20101   30101
 
     1316     866    1286    1315    1317    1346
        0   60101   40101   10101   20101   30101
 
     1317     867    1287    1316    1318    1347
        0   60101   40101   10101   20101   30101
 
     1318     868    1288    1317    1319    1348
        0   60101   40101   10101   20101   30101
 
     1319     869    1289    1318    1320    1349
        0   60101   40101   10101   20101   30101
 
     1320     870    1290    1319    1350
        0   60101   40101   10101   30101
 
     1321     871    1291    1322
        0   60101   40101   20101
 
     1322     872    1292    1321    1323
        0   60101   40101   10101   20101
 
     1323     873    1293    1322    1324
        0   60101   40101   10101   20101
 
     1324     874    1294    1323    1325
        0   60101   40101   10101   20101
 
     1325     875    1295    1324    1326
        0   60101   40101   10101   20101
 
     1326     876    1296    1325    1327
        0   60101   40101   10101   20101
 
     1327     877    1297    1326    1328
        0   60101   40101   10101   20101
 
     1328     878    1298    1327    1329
        0   60101   40101   10101   20101
 
     1329     879    1299    1328    1330
        0   60101   40101   10101   20101
 
     1330     880    1300    1329    1331
        0   60101   40101   10101   20101
 
     1331     881    1301    1330    1332
        0   60101   40101   10101   20101
 
     1332     882    1302    1331    1333
        0   60101   40101   10101   20101
 
     1333     883    1303    1332    1334
        0   60101   40101   10101   20101
 
     1334     884    1304    1333    1335
        0   60101   40101   10101   20101
 
     1335     885    1305    1334    1336
        0   60101   40101   10101   20101
 
     1336     886    1306    1335    1337
        0   60101   40101   10101   20101
 
     1337     887    1307    1336    1338
        0   60101   40101   10101   20101
 
     1338     888    1308    1337    1339
        0   60101   40101   10101   20101
 
     1339     889    1309    1338    1340
        0   60101   40101   10101   20101
 
     1340     890    1310    1339    1341
        0   60101   40101   10101   20101
 
     1341     891    1311    1340    1342
        0   60101   40101   10101   20101
 
     1342     892    1312    1341    1343
        0   60101   40101   10101   20101
 
     1343     893    1313    1342    1344
        0   60101   40101   10101   20101
 
     1344     894    1314    1343    1345
        0   60101   40101   10101   20101
 
     1345     895    1315    1344    1346
        0   60101   40101   10101   20101
 
     1346     896    1316    1345    1347
        0   60101   40101   10101   20101
 
     1347     897    1317    1346    1348
        0   60101   40101   10101   20101
 
     1348     898    1318    1347    1349
        0   60101   40101   10101   20101
 
     1349     899    1319    1348    1350
        0   60101   40101   10101   20101
 
     1350     900    1320    1349
        0   60101   40101   10101
 
Allocate budget reader component.
Open budget file in budget reader.
Allocate head reader component.
Open head file in head reader component.
Allocate MODPATH basic data component.
Read MODPATH basic data component.
Read the remainder of the MODPATH simulation data component.
Allocate particle tracking engine component.
Compute range of time steps. Prepare for time step loop                                                                             
Begin TIME_STEP_LOOP
Compute TSMAX                                                                                                                       
Begin TRACKING_INTERVAL_LOOP
Exit TRACKING_INTERVAL_LOOP
Exit TIME_STEP_LOOP
Write endpoint file.
Consolidating pathline segments.
Begin memory deallocation.
Memory deallocation complete.
