                                   MODFLOW 6
                U.S. GEOLOGICAL SURVEY MODULAR HYDROLOGIC MODEL
                          GROUNDWATER FLOW MODEL (GWF)
                            VERSION 6.6.1 02/10/2025

   MODFLOW 6 compiled Feb 14 2025 13:40:10 with Intel(R) Fortran Intel(R) 64
   Compiler Classic for applications running on Intel(R) 64, Version 2021.7.0
                             Build 20220726_000000

This software has been approved for release by the U.S. Geological 
Survey (USGS). Although the software has been subjected to rigorous 
review, the USGS reserves the right to update the software as needed 
pursuant to further analysis and review. No warranty, expressed or 
implied, is made by the USGS or the U.S. Government as to the 
functionality of the software and related material nor shall the 
fact of release constitute any such warranty. Furthermore, the 
software is released on condition that neither the USGS nor the U.S. 
Government shall be held liable for any damages resulting from its 
authorized or unauthorized use. Also refer to the USGS Water 
Resources Software User Rights Notice for complete use, copyright, 
and distribution information.


As a work of the United States Government, this USGS product is 
in the public domain within the United States. You can copy, 
modify, distribute, and perform the work, even for commercial 
purposes, all without asking permission. Additionally, USGS 
waives copyright and related rights in the work worldwide 
through CC0 1.0 Universal Public Domain Dedication 
(https://creativecommons.org/publicdomain/zero/1.0/).

The following GNU Lesser General Public License (LGPL) libraries
are used in this USGS product:

    SPARSKIT version 2.0
      ilut, luson, and qsplit 
      (https://www-users.cse.umn.edu/~saad/software/SPARSKIT/)

    RCM - Reverse Cuthill McKee Ordering
      (https://people.math.sc.edu/Burkardt/f_src/rcm/rcm.html)

    BLAS - Basic Linear Algebra Subprograms Level 1
      (https://people.math.sc.edu/Burkardt/f_src/blas1_d/blas1_d.html)

    SPARSEKIT - Sparse Matrix Utility Package
      amux, dperm, dvperm, rperm, and cperm
      (https://people.sc.fsu.edu/~jburkardt/f77_src/sparsekit/sparsekit.html)

The following BSD-3 License libraries are used in this USGS product:

    Modern Fortran DAG Library
      Copyright (c) 2018, Jacob Williams
      All rights reserved.
      (https://github.com/jacobwilliams/daglib)

MODFLOW 6 compiler options: /O2 /heap-arrays:0 /fpe:0 /traceback /nologo /fpp
/c /module:win64\mod_mf6\ /object:win64\obj_mf6\

System command used to initiate simulation:
C:\Users\gross.DESKTOP-AIRQM2M\anaconda3\Scripts\mf6.exe mfsim.nam

MODFLOW was compiled using uniform precision.

Real Variables
  KIND: 8
  TINY (smallest non-zero value):    2.225074-308
  HUGE (largest value):    1.797693+308
  PRECISION: 15
  SIZE IN BITS: 64

Integer Variables
  KIND: 4
  HUGE (largest value): 2147483647
  SIZE IN BITS: 32

Long Integer Variables
  KIND: 8
  HUGE (largest value): 9223372036854775807
  SIZE IN BITS: 64

Logical Variables
  KIND: 4
  SIZE IN BITS: 32
 
 NAMEFILE OPTIONS:
    NEWTON-RAPHSON method enabled for the model.
    NEWTON-RAPHSON UNDER-RELAXATION based on the bottom elevation of the model will be applied to the model.
    STRESS PACKAGE INPUT WILL BE PRINTED FOR ALL MODEL STRESS PACKAGES
    FLOWS WILL BE SAVED TO BUDGET FILE SPECIFIED IN OUTPUT CONTROL
 END NAMEFILE OPTIONS:

 DIS -- STRUCTURED GRID DISCRETIZATION PACKAGE, VERSION 2 : 3/27/2014 - INPUT READ FROM MEMPATH: __INPUT__/MODEL/DIS                               


 NPF -- NODE PROPERTY FLOW PACKAGE, VERSION 1, 3/30/2015 INPUT READ FROM MEMPATH: __INPUT__/MODEL/NPF                               


 IC -- Initial Conditions Package, Version 8, 3/28/2015 input read from mempath: __INPUT__/MODEL/IC                                


 Setting Discretization Options
    XORIGIN = .000000000000000
    YORIGIN = .000000000000000
 End Setting Discretization Options

 Setting Discretization Dimensions
    NLAY = 5
    NROW = 41
    NCOL = 73
 End Setting Discretization Dimensions

 Setting Discretization Griddata
    DELR set from input file
    DELC set from input file
    TOP set from input file
    BOTM set from input file
    IDOMAIN set from input file
 End Setting Discretization Griddata


 The specified IDOMAIN results in a reduced number of cells.
 Number of user nodes: 14965
 Number of nodes in solution: 10415


 Setting NPF Options
    Specific discharge will be calculated at cell centers and written to DATA-SPDIS in budget file when requested.
 End Setting NPF Options

 Setting NPF Griddata
    ICELLTYPE set from input file
    K set from input file
    K33 not provided.  Setting K33 = K.
    K22 not provided.  Setting K22 = K.
 End Setting NPF Griddata


 DRN   -- DRN PACKAGE, VERSION 8, 2/22/2014 INPUT READ FROM MEMPATH: __INPUT__/MODEL/RIVER                             

 PROCESSING DRN BASE OPTIONS
 END OF DRN BASE OPTIONS

 PROCESSING DRN OPTIONS
 END OF DRN OPTIONS

 PROCESSING DRN BASE DIMENSIONS
    MAXBOUND =     169
 END OF DRN BASE DIMENSIONS

 DRN   -- DRN PACKAGE, VERSION 8, 2/22/2014 INPUT READ FROM MEMPATH: __INPUT__/MODEL/GWD                               

 PROCESSING DRN BASE OPTIONS
 END OF DRN BASE OPTIONS

 PROCESSING DRN OPTIONS
 END OF DRN OPTIONS

 PROCESSING DRN BASE DIMENSIONS
    MAXBOUND =    1919
 END OF DRN BASE DIMENSIONS

 RCH   -- RCH PACKAGE, VERSION 8, 2/22/2014 INPUT READ FROM MEMPATH: __INPUT__/MODEL/RCHA_0                            

 PROCESSING RCH BASE OPTIONS
 END OF RCH BASE OPTIONS

 PROCESSING RCHA OPTIONS
    RECHARGE INPUT WILL BE READ AS ARRAY(S).
 END OF RCHA OPTIONS
    STRT set from input file
    BINARY GRID INFORMATION WILL BE WRITTEN TO:
      UNIT NUMBER: 1014
      FILE NAME: model.dis.grb

 OPENED model.dis.grb
 FILE TYPE:DATA(BINARY)   UNIT 1014   STATUS:REPLACE             
 FORMAT:UNFORMATTED            ACCESS:STREAM              
 ACTION:READWRITE           

      THE LAST TIME STEP WILL BE PRINTED
      THE LAST TIME STEP WILL BE PRINTED
 # File generated by Flopy version 3.10.0.dev3 on 06/16/2025 at 08:45:41.

 PROCESSING OC OPTIONS

    BUDGET INFORMATION WILL BE WRITTEN TO:
      UNIT NUMBER: 1015
      FILE NAME: model.cbc

 OPENED model.cbc
 FILE TYPE:DATA(BINARY)   UNIT 1015   STATUS:REPLACE             
 FORMAT:UNFORMATTED            ACCESS:STREAM              
 ACTION:READWRITE           

    HEAD INFORMATION WILL BE WRITTEN TO:
      UNIT NUMBER: 1016
      FILE NAME: model.hds

 OPENED model.hds
 FILE TYPE:DATA(BINARY)   UNIT 1016   STATUS:REPLACE             
 FORMAT:UNFORMATTED            ACCESS:STREAM              
 ACTION:READWRITE           

 END OF OC OPTIONS

start timestep kper="1" kstp="1" mode="normal"


 BEGIN READING OUTPUT CONTROL FOR STRESS PERIOD 1
      ALL TIME STEPS WILL BE SAVED
      ALL TIME STEPS WILL BE SAVED
      ALL TIME STEPS WILL BE PRINTED

 END READING OUTPUT CONTROL FOR STRESS PERIOD 1
 ----------------------------------
  DRN NO.    LAYER    ROW     COL  
 ----------------------------------
     1         1      18      47   
     2         1      18      46   
     3         1      18      45   
     4         1      18      44   
     5         1      18      43   
     6         1      17      43   
     7         1      17      42   
     8         1      17      41   
     9         1      17      40   
     10        1      16      40   
     11        1      16      39   
     12        1      16      38   
     13        1      16      37   
     14        1      16      36   
     15        1      16      35   
     16        1      16      34   
     17        1      16      33   
     18        1      17      33   
     19        1      17      32   
     20        1      17      31   
     21        1      17      30   
     22        1      17      29   
     23        1      17      28   
     24        1      17      27   
     25        1      17      26   
     26        1      17      25   
     27        1      17      24   
     28        1      17      23   
     29        1      16      23   
     30        1      16      22   
     31        1      16      21   
     32        1      17      21   
     33        1      17      20   
     34        1      17      19   
     35        1      17      18   
     36        1      17      17   
     37        1      17      16   
     38        1      17      15   
     39        1      17      14   
     40        1      17      13   
     41        1      17      12   
     42        1      17      11   
     43        1      17      10   
     44        1      18      10   
     45        1      18       9   
     46        1      18       8   
     47        1      18       7   
     48        1      18       6   
     49        1      18       5   
     50        1      18       4   
     51        1      17       4   
     52        1      17       3   
     53        1      17       2   
     54        1      16       2   
     55        1      16       1   
     56        1      15       1   
     57        1      14       1   
     58        1      13      73   
     59        1      13       1   
     60        1      12      73   
     61        1      12       3   
     62        1      12       2   
     63        1      11       6   
     64        1      11       5   
     65        1      10      11   
     66        1      10      10   
     67        1      10       9   
     68        1      10       8   
     69        1      10       7   
     70        1       9      14   
     71        1       9      13   
     72        1       9      12   
     73        1       9      11   
     74        1       9      10   
     75        1       9       9   
     76        1       9       8   
     77        1       9       7   
     78        1       8      16   
     79        1       8      15   
     80        1       7      26   
     81        1      17       3   
     82        1      17       2   
     83        1      17       1   
     84        1      18       1   
     85        1      17      73   
     86        1      17      72   
     87        1      17      71   
     88        1      17      70   
     89        1      17      69   
     90        1      17      68   
     91        1      18      68   
     92        1      18      67   
     93        1      18      66   
     94        1      18      65   
     95        1      19      64   
     96        1      19      63   
     97        1      19      62   
     98        1      20      61   
     99        1      20      60   
    100        1      20      59   
    101        1      21      57   
    102        1      21      56   
    103        1      21      55   
    104        1      21      54   
    105        1      22      50   
    106        1      17      17   
    107        1      17      16   
    108        1      18      16   
    109        1      18      15   
    110        1      19      15   
    111        1      19      14   
    112        1      20      13   
    113        1      20      12   
    114        1      21      11   
    115        1      21      10   
    116        1      21       9   
    117        1      22       7   
    118        1      22       6   
    119        1      22       5   
    120        1      23       1   
    121        1      22      73   
    122        1      22      72   
    123        1      23      66   
    124        1      23      65   
    125        1      23      64   
    126        1      24      54   
    127        1      24      53   
    128        1      24      52   
    129        1      25      39   
    130        1      25      38   
    131        1      25      37   
    132        1      26      19   
    133        1      26      18   
    134        1      17      29   
    135        1      16      29   
    136        1      16      28   
    137        1      16      27   
    138        1      15      27   
    139        1      15      26   
    140        1      14      26   
    141        1      14      25   
    142        1      13      26   
    143        1      13      25   
    144        1      13      24   
    145        1      12      27   
    146        1      12      26   
    147        1      12      25   
    148        1      12      24   
    149        1      12      23   
    150        1      12      22   
    151        1      12      21   
    152        1      11      25   
    153        1      11      24   
    154        1      11      23   
    155        1      10      29   
    156        1      10      28   
    157        1      10      27   
    158        1      10      26   
    159        1       9      33   
    160        1       8      42   
    161        1       8      41   
    162        1       7      52   
    163        1       6      65   
    164        1       6      64   
    165        1       6       5   
    166        1       6       4   
    167        1       5      21   
    168        1       5      20   
    169        1       4      42   
 ----------------------------------


 ---------------------------------------------------
  DRN NO.    LAYER    ROW     COL        DEPTH      
 ---------------------------------------------------
     1         1       1       1     1.00000000     
     2         1       1       2     1.00000000     
     3         1       1       3     1.00000000     
     4         1       1       4     1.00000000     
     5         1       1       5     1.00000000     
     6         1       1       6     1.00000000     
     7         1       1       7     1.00000000     
     8         1       1       8     1.00000000     
     9         1       1       9     1.00000000     
     10        1       1      10     1.00000000     
     11        1       1      11     1.00000000     
     12        1       1      12     1.00000000     
     13        1       1      13     1.00000000     
     14        1       1      14     1.00000000     
     15        1       1      15     1.00000000     
     16        1       1      16     1.00000000     
     17        1       1      17     1.00000000     
     18        1       1      18     1.00000000     
     19        1       1      19     1.00000000     
     20        1       1      20     1.00000000     
     21        1       1      21     1.00000000     
     22        1       1      22     1.00000000     
     23        1       1      23     1.00000000     
     24        1       1      24     1.00000000     
     25        1       1      25     1.00000000     
     26        1       1      26     1.00000000     
     27        1       1      27     1.00000000     
     28        1       1      28     1.00000000     
     29        1       1      29     1.00000000     
     30        1       1      30     1.00000000     
     31        1       1      31     1.00000000     
     32        1       1      32     1.00000000     
     33        1       1      33     1.00000000     
     34        1       1      34     1.00000000     
     35        1       1      35     1.00000000     
     36        1       1      36     1.00000000     
     37        1       1      37     1.00000000     
     38        1       1      38     1.00000000     
     39        1       1      39     1.00000000     
     40        1       1      40     1.00000000     
     41        1       1      41     1.00000000     
     42        1       1      42     1.00000000     
     43        1       1      43     1.00000000     
     44        1       1      44     1.00000000     
     45        1       1      45     1.00000000     
     46        1       1      46     1.00000000     
     47        1       1      47     1.00000000     
     48        1       1      48     1.00000000     
     49        1       1      49     1.00000000     
     50        1       1      50     1.00000000     
     51        1       1      51     1.00000000     
     52        1       1      52     1.00000000     
     53        1       1      53     1.00000000     
     54        1       1      54     1.00000000     
     55        1       1      55     1.00000000     
     56        1       1      56     1.00000000     
     57        1       1      57     1.00000000     
     58        1       1      58     1.00000000     
     59        1       1      59     1.00000000     
     60        1       1      60     1.00000000     
     61        1       1      61     1.00000000     
     62        1       1      62     1.00000000     
     63        1       1      63     1.00000000     
     64        1       1      64     1.00000000     
     65        1       1      65     1.00000000     
     66        1       1      66     1.00000000     
     67        1       1      67     1.00000000     
     68        1       1      68     1.00000000     
     69        1       1      69     1.00000000     
     70        1       1      70     1.00000000     
     71        1       1      71     1.00000000     
     72        1       1      72     1.00000000     
     73        1       1      73     1.00000000     
     74        1       2       1     1.00000000     
     75        1       2       2     1.00000000     
     76        1       2       3     1.00000000     
     77        1       2       4     1.00000000     
     78        1       2       5     1.00000000     
     79        1       2       6     1.00000000     
     80        1       2       7     1.00000000     
     81        1       2       8     1.00000000     
     82        1       2       9     1.00000000     
     83        1       2      10     1.00000000     
     84        1       2      11     1.00000000     
     85        1       2      12     1.00000000     
     86        1       2      13     1.00000000     
     87        1       2      14     1.00000000     
     88        1       2      15     1.00000000     
     89        1       2      16     1.00000000     
     90        1       2      17     1.00000000     
     91        1       2      18     1.00000000     
     92        1       2      19     1.00000000     
     93        1       2      20     1.00000000     
     94        1       2      21     1.00000000     
     95        1       2      22     1.00000000     
     96        1       2      23     1.00000000     
     97        1       2      24     1.00000000     
     98        1       2      25     1.00000000     
     99        1       2      26     1.00000000     
    100        1       2      27     1.00000000     
    101        1       2      28     1.00000000     
    102        1       2      29     1.00000000     
    103        1       2      30     1.00000000     
    104        1       2      31     1.00000000     
    105        1       2      32     1.00000000     
    106        1       2      33     1.00000000     
    107        1       2      34     1.00000000     
    108        1       2      35     1.00000000     
    109        1       2      36     1.00000000     
    110        1       2      37     1.00000000     
    111        1       2      38     1.00000000     
    112        1       2      39     1.00000000     
    113        1       2      40     1.00000000     
    114        1       2      41     1.00000000     
    115        1       2      42     1.00000000     
    116        1       2      43     1.00000000     
    117        1       2      44     1.00000000     
    118        1       2      45     1.00000000     
    119        1       2      46     1.00000000     
    120        1       2      47     1.00000000     
    121        1       2      48     1.00000000     
    122        1       2      49     1.00000000     
    123        1       2      50     1.00000000     
    124        1       2      51     1.00000000     
    125        1       2      52     1.00000000     
    126        1       2      53     1.00000000     
    127        1       2      54     1.00000000     
    128        1       2      55     1.00000000     
    129        1       2      56     1.00000000     
    130        1       2      57     1.00000000     
    131        1       2      58     1.00000000     
    132        1       2      59     1.00000000     
    133        1       2      60     1.00000000     
    134        1       2      61     1.00000000     
    135        1       2      62     1.00000000     
    136        1       2      63     1.00000000     
    137        1       2      64     1.00000000     
    138        1       2      65     1.00000000     
    139        1       2      66     1.00000000     
    140        1       2      67     1.00000000     
    141        1       2      68     1.00000000     
    142        1       2      69     1.00000000     
    143        1       2      70     1.00000000     
    144        1       2      71     1.00000000     
    145        1       2      72     1.00000000     
    146        1       2      73     1.00000000     
    147        1       3       1     1.00000000     
    148        1       3       2     1.00000000     
    149        1       3       3     1.00000000     
    150        1       3       4     1.00000000     
    151        1       3       5     1.00000000     
    152        1       3       6     1.00000000     
    153        1       3       7     1.00000000     
    154        1       3       8     1.00000000     
    155        1       3       9     1.00000000     
    156        1       3      10     1.00000000     
    157        1       3      11     1.00000000     
    158        1       3      12     1.00000000     
    159        1       3      13     1.00000000     
    160        1       3      14     1.00000000     
    161        1       3      15     1.00000000     
    162        1       3      16     1.00000000     
    163        1       3      17     1.00000000     
    164        1       3      18     1.00000000     
    165        1       3      19     1.00000000     
    166        1       3      20     1.00000000     
    167        1       3      21     1.00000000     
    168        1       3      22     1.00000000     
    169        1       3      23     1.00000000     
    170        1       3      24     1.00000000     
    171        1       3      25     1.00000000     
    172        1       3      26     1.00000000     
    173        1       3      27     1.00000000     
    174        1       3      28     1.00000000     
    175        1       3      29     1.00000000     
    176        1       3      30     1.00000000     
    177        1       3      31     1.00000000     
    178        1       3      32     1.00000000     
    179        1       3      33     1.00000000     
    180        1       3      34     1.00000000     
    181        1       3      35     1.00000000     
    182        1       3      36     1.00000000     
    183        1       3      37     1.00000000     
    184        1       3      38     1.00000000     
    185        1       3      39     1.00000000     
    186        1       3      40     1.00000000     
    187        1       3      41     1.00000000     
    188        1       3      42     1.00000000     
    189        1       3      43     1.00000000     
    190        1       3      44     1.00000000     
    191        1       3      45     1.00000000     
    192        1       3      46     1.00000000     
    193        1       3      47     1.00000000     
    194        1       3      48     1.00000000     
    195        1       3      49     1.00000000     
    196        1       3      50     1.00000000     
    197        1       3      51     1.00000000     
    198        1       3      52     1.00000000     
    199        1       3      53     1.00000000     
    200        1       3      54     1.00000000     
    201        1       3      55     1.00000000     
    202        1       3      56     1.00000000     
    203        1       3      57     1.00000000     
    204        1       3      58     1.00000000     
    205        1       3      59     1.00000000     
    206        1       3      60     1.00000000     
    207        1       3      61     1.00000000     
    208        1       3      62     1.00000000     
    209        1       3      63     1.00000000     
    210        1       3      64     1.00000000     
    211        1       3      65     1.00000000     
    212        1       3      66     1.00000000     
    213        1       3      67     1.00000000     
    214        1       3      68     1.00000000     
    215        1       3      69     1.00000000     
    216        1       3      70     1.00000000     
    217        1       3      71     1.00000000     
    218        1       3      72     1.00000000     
    219        1       3      73     1.00000000     
    220        1       4       1     1.00000000     
    221        1       4       2     1.00000000     
    222        1       4       3     1.00000000     
    223        1       4       4     1.00000000     
    224        1       4       5     1.00000000     
    225        1       4       6     1.00000000     
    226        1       4       7     1.00000000     
    227        1       4       8     1.00000000     
    228        1       4       9     1.00000000     
    229        1       4      10     1.00000000     
    230        1       4      11     1.00000000     
    231        1       4      12     1.00000000     
    232        1       4      13     1.00000000     
    233        1       4      14     1.00000000     
    234        1       4      15     1.00000000     
    235        1       4      16     1.00000000     
    236        1       4      17     1.00000000     
    237        1       4      18     1.00000000     
    238        1       4      19     1.00000000     
    239        1       4      20     1.00000000     
    240        1       4      21     1.00000000     
    241        1       4      22     1.00000000     
    242        1       4      23     1.00000000     
    243        1       4      24     1.00000000     
    244        1       4      25     1.00000000     
    245        1       4      26     1.00000000     
    246        1       4      27     1.00000000     
    247        1       4      28     1.00000000     
    248        1       4      29     1.00000000     
    249        1       4      30     1.00000000     
    250        1       4      31     1.00000000     
    251        1       4      32     1.00000000     
    252        1       4      33     1.00000000     
    253        1       4      34     1.00000000     
    254        1       4      35     1.00000000     
    255        1       4      36     1.00000000     
    256        1       4      37     1.00000000     
    257        1       4      38     1.00000000     
    258        1       4      39     1.00000000     
    259        1       4      40     1.00000000     
    260        1       4      41     1.00000000     
    261        1       4      43     1.00000000     
    262        1       4      44     1.00000000     
    263        1       4      45     1.00000000     
    264        1       4      46     1.00000000     
    265        1       4      47     1.00000000     
    266        1       4      48     1.00000000     
    267        1       4      49     1.00000000     
    268        1       4      50     1.00000000     
    269        1       4      51     1.00000000     
    270        1       4      52     1.00000000     
    271        1       4      53     1.00000000     
    272        1       4      54     1.00000000     
    273        1       4      55     1.00000000     
    274        1       4      56     1.00000000     
    275        1       4      57     1.00000000     
    276        1       4      58     1.00000000     
    277        1       4      59     1.00000000     
    278        1       4      60     1.00000000     
    279        1       4      61     1.00000000     
    280        1       4      62     1.00000000     
    281        1       4      63     1.00000000     
    282        1       4      64     1.00000000     
    283        1       4      65     1.00000000     
    284        1       4      66     1.00000000     
    285        1       4      67     1.00000000     
    286        1       4      68     1.00000000     
    287        1       4      69     1.00000000     
    288        1       4      70     1.00000000     
    289        1       4      71     1.00000000     
    290        1       4      72     1.00000000     
    291        1       4      73     1.00000000     
    292        1       5       1     1.00000000     
    293        1       5       2     1.00000000     
    294        1       5       3     1.00000000     
    295        1       5       4     1.00000000     
    296        1       5       5     1.00000000     
    297        1       5       6     1.00000000     
    298        1       5       7     1.00000000     
    299        1       5       8     1.00000000     
    300        1       5       9     1.00000000     
    301        1       5      10     1.00000000     
    302        1       5      11     1.00000000     
    303        1       5      12     1.00000000     
    304        1       5      13     1.00000000     
    305        1       5      14     1.00000000     
    306        1       5      15     1.00000000     
    307        1       5      16     1.00000000     
    308        1       5      17     1.00000000     
    309        1       5      18     1.00000000     
    310        1       5      19     1.00000000     
    311        1       5      22     1.00000000     
    312        1       5      23     1.00000000     
    313        1       5      24     1.00000000     
    314        1       5      25     1.00000000     
    315        1       5      26     1.00000000     
    316        1       5      27     1.00000000     
    317        1       5      28     1.00000000     
    318        1       5      29     1.00000000     
    319        1       5      30     1.00000000     
    320        1       5      31     1.00000000     
    321        1       5      32     1.00000000     
    322        1       5      33     1.00000000     
    323        1       5      34     1.00000000     
    324        1       5      35     1.00000000     
    325        1       5      36     1.00000000     
    326        1       5      37     1.00000000     
    327        1       5      38     1.00000000     
    328        1       5      39     1.00000000     
    329        1       5      40     1.00000000     
    330        1       5      41     1.00000000     
    331        1       5      42     1.00000000     
    332        1       5      43     1.00000000     
    333        1       5      44     1.00000000     
    334        1       5      45     1.00000000     
    335        1       5      46     1.00000000     
    336        1       5      47     1.00000000     
    337        1       5      48     1.00000000     
    338        1       5      49     1.00000000     
    339        1       5      50     1.00000000     
    340        1       5      51     1.00000000     
    341        1       5      52     1.00000000     
    342        1       5      53     1.00000000     
    343        1       5      54     1.00000000     
    344        1       5      55     1.00000000     
    345        1       5      56     1.00000000     
    346        1       5      57     1.00000000     
    347        1       5      58     1.00000000     
    348        1       5      59     1.00000000     
    349        1       5      60     1.00000000     
    350        1       5      61     1.00000000     
    351        1       5      62     1.00000000     
    352        1       5      63     1.00000000     
    353        1       5      64     1.00000000     
    354        1       5      65     1.00000000     
    355        1       5      66     1.00000000     
    356        1       5      67     1.00000000     
    357        1       5      68     1.00000000     
    358        1       5      69     1.00000000     
    359        1       5      70     1.00000000     
    360        1       5      71     1.00000000     
    361        1       5      72     1.00000000     
    362        1       5      73     1.00000000     
    363        1       6       1     1.00000000     
    364        1       6       2     1.00000000     
    365        1       6       3     1.00000000     
    366        1       6       6     1.00000000     
    367        1       6       7     1.00000000     
    368        1       6       8     1.00000000     
    369        1       6       9     1.00000000     
    370        1       6      10     1.00000000     
    371        1       6      11     1.00000000     
    372        1       6      12     1.00000000     
    373        1       6      13     1.00000000     
    374        1       6      14     1.00000000     
    375        1       6      15     1.00000000     
    376        1       6      16     1.00000000     
    377        1       6      17     1.00000000     
    378        1       6      18     1.00000000     
    379        1       6      19     1.00000000     
    380        1       6      20     1.00000000     
    381        1       6      21     1.00000000     
    382        1       6      22     1.00000000     
    383        1       6      23     1.00000000     
    384        1       6      24     1.00000000     
    385        1       6      25     1.00000000     
    386        1       6      26     1.00000000     
    387        1       6      27     1.00000000     
    388        1       6      28     1.00000000     
    389        1       6      29     1.00000000     
    390        1       6      30     1.00000000     
    391        1       6      31     1.00000000     
    392        1       6      32     1.00000000     
    393        1       6      33     1.00000000     
    394        1       6      34     1.00000000     
    395        1       6      35     1.00000000     
    396        1       6      36     1.00000000     
    397        1       6      37     1.00000000     
    398        1       6      38     1.00000000     
    399        1       6      39     1.00000000     
    400        1       6      40     1.00000000     
    401        1       6      41     1.00000000     
    402        1       6      42     1.00000000     
    403        1       6      43     1.00000000     
    404        1       6      44     1.00000000     
    405        1       6      45     1.00000000     
    406        1       6      46     1.00000000     
    407        1       6      47     1.00000000     
    408        1       6      48     1.00000000     
    409        1       6      49     1.00000000     
    410        1       6      50     1.00000000     
    411        1       6      51     1.00000000     
    412        1       6      52     1.00000000     
    413        1       6      53     1.00000000     
    414        1       6      54     1.00000000     
    415        1       6      55     1.00000000     
    416        1       6      56     1.00000000     
    417        1       6      57     1.00000000     
    418        1       6      58     1.00000000     
    419        1       6      59     1.00000000     
    420        1       6      60     1.00000000     
    421        1       6      61     1.00000000     
    422        1       6      62     1.00000000     
    423        1       6      63     1.00000000     
    424        1       6      66     1.00000000     
    425        1       6      67     1.00000000     
    426        1       6      68     1.00000000     
    427        1       6      69     1.00000000     
    428        1       6      70     1.00000000     
    429        1       6      71     1.00000000     
    430        1       6      72     1.00000000     
    431        1       6      73     1.00000000     
    432        1       7       1     1.00000000     
    433        1       7       2     1.00000000     
    434        1       7       3     1.00000000     
    435        1       7       4     1.00000000     
    436        1       7       5     1.00000000     
    437        1       7       6     1.00000000     
    438        1       7       7     1.00000000     
    439        1       7       8     1.00000000     
    440        1       7       9     1.00000000     
    441        1       7      10     1.00000000     
    442        1       7      11     1.00000000     
    443        1       7      12     1.00000000     
    444        1       7      13     1.00000000     
    445        1       7      14     1.00000000     
    446        1       7      15     1.00000000     
    447        1       7      16     1.00000000     
    448        1       7      17     1.00000000     
    449        1       7      18     1.00000000     
    450        1       7      19     1.00000000     
    451        1       7      20     1.00000000     
    452        1       7      21     1.00000000     
    453        1       7      22     1.00000000     
    454        1       7      23     1.00000000     
    455        1       7      24     1.00000000     
    456        1       7      25     1.00000000     
    457        1       7      27     1.00000000     
    458        1       7      28     1.00000000     
    459        1       7      29     1.00000000     
    460        1       7      30     1.00000000     
    461        1       7      31     1.00000000     
    462        1       7      32     1.00000000     
    463        1       7      33     1.00000000     
    464        1       7      34     1.00000000     
    465        1       7      35     1.00000000     
    466        1       7      36     1.00000000     
    467        1       7      37     1.00000000     
    468        1       7      38     1.00000000     
    469        1       7      39     1.00000000     
    470        1       7      40     1.00000000     
    471        1       7      41     1.00000000     
    472        1       7      42     1.00000000     
    473        1       7      43     1.00000000     
    474        1       7      44     1.00000000     
    475        1       7      45     1.00000000     
    476        1       7      46     1.00000000     
    477        1       7      47     1.00000000     
    478        1       7      48     1.00000000     
    479        1       7      49     1.00000000     
    480        1       7      50     1.00000000     
    481        1       7      51     1.00000000     
    482        1       7      53     1.00000000     
    483        1       7      54     1.00000000     
    484        1       7      55     1.00000000     
    485        1       7      56     1.00000000     
    486        1       7      57     1.00000000     
    487        1       7      58     1.00000000     
    488        1       7      59     1.00000000     
    489        1       7      60     1.00000000     
    490        1       7      61     1.00000000     
    491        1       7      62     1.00000000     
    492        1       7      63     1.00000000     
    493        1       7      64     1.00000000     
    494        1       7      65     1.00000000     
    495        1       7      66     1.00000000     
    496        1       7      67     1.00000000     
    497        1       7      68     1.00000000     
    498        1       7      69     1.00000000     
    499        1       7      70     1.00000000     
    500        1       7      71     1.00000000     
    501        1       7      72     1.00000000     
    502        1       7      73     1.00000000     
    503        1       8       1     1.00000000     
    504        1       8       2     1.00000000     
    505        1       8       3     1.00000000     
    506        1       8       4     1.00000000     
    507        1       8       5     1.00000000     
    508        1       8       6     1.00000000     
    509        1       8       7     1.00000000     
    510        1       8       8     1.00000000     
    511        1       8       9     1.00000000     
    512        1       8      10     1.00000000     
    513        1       8      11     1.00000000     
    514        1       8      12     1.00000000     
    515        1       8      13     1.00000000     
    516        1       8      14     1.00000000     
    517        1       8      17     1.00000000     
    518        1       8      18     1.00000000     
    519        1       8      19     1.00000000     
    520        1       8      20     1.00000000     
    521        1       8      21     1.00000000     
    522        1       8      22     1.00000000     
    523        1       8      23     1.00000000     
    524        1       8      24     1.00000000     
    525        1       8      25     1.00000000     
    526        1       8      26     1.00000000     
    527        1       8      27     1.00000000     
    528        1       8      28     1.00000000     
    529        1       8      29     1.00000000     
    530        1       8      30     1.00000000     
    531        1       8      31     1.00000000     
    532        1       8      32     1.00000000     
    533        1       8      33     1.00000000     
    534        1       8      34     1.00000000     
    535        1       8      35     1.00000000     
    536        1       8      36     1.00000000     
    537        1       8      37     1.00000000     
    538        1       8      38     1.00000000     
    539        1       8      39     1.00000000     
    540        1       8      40     1.00000000     
    541        1       8      43     1.00000000     
    542        1       8      44     1.00000000     
    543        1       8      45     1.00000000     
    544        1       8      46     1.00000000     
    545        1       8      47     1.00000000     
    546        1       8      48     1.00000000     
    547        1       8      49     1.00000000     
    548        1       8      50     1.00000000     
    549        1       8      51     1.00000000     
    550        1       8      52     1.00000000     
    551        1       8      53     1.00000000     
    552        1       8      54     1.00000000     
    553        1       8      55     1.00000000     
    554        1       8      56     1.00000000     
    555        1       8      57     1.00000000     
    556        1       8      58     1.00000000     
    557        1       8      59     1.00000000     
    558        1       8      60     1.00000000     
    559        1       8      61     1.00000000     
    560        1       8      62     1.00000000     
    561        1       8      63     1.00000000     
    562        1       8      64     1.00000000     
    563        1       8      65     1.00000000     
    564        1       8      66     1.00000000     
    565        1       8      67     1.00000000     
    566        1       8      68     1.00000000     
    567        1       8      69     1.00000000     
    568        1       8      70     1.00000000     
    569        1       8      71     1.00000000     
    570        1       8      72     1.00000000     
    571        1       8      73     1.00000000     
    572        1       9       1     1.00000000     
    573        1       9       2     1.00000000     
    574        1       9       3     1.00000000     
    575        1       9       4     1.00000000     
    576        1       9       5     1.00000000     
    577        1       9       6     1.00000000     
    578        1       9      15     1.00000000     
    579        1       9      16     1.00000000     
    580        1       9      17     1.00000000     
    581        1       9      18     1.00000000     
    582        1       9      19     1.00000000     
    583        1       9      20     1.00000000     
    584        1       9      21     1.00000000     
    585        1       9      22     1.00000000     
    586        1       9      23     1.00000000     
    587        1       9      24     1.00000000     
    588        1       9      25     1.00000000     
    589        1       9      26     1.00000000     
    590        1       9      27     1.00000000     
    591        1       9      28     1.00000000     
    592        1       9      29     1.00000000     
    593        1       9      30     1.00000000     
    594        1       9      31     1.00000000     
    595        1       9      32     1.00000000     
    596        1       9      34     1.00000000     
    597        1       9      35     1.00000000     
    598        1       9      36     1.00000000     
    599        1       9      37     1.00000000     
    600        1       9      38     1.00000000     
    601        1       9      39     1.00000000     
    602        1       9      40     1.00000000     
    603        1       9      41     1.00000000     
    604        1       9      42     1.00000000     
    605        1       9      43     1.00000000     
    606        1       9      44     1.00000000     
    607        1       9      45     1.00000000     
    608        1       9      46     1.00000000     
    609        1       9      47     1.00000000     
    610        1       9      48     1.00000000     
    611        1       9      49     1.00000000     
    612        1       9      50     1.00000000     
    613        1       9      51     1.00000000     
    614        1       9      52     1.00000000     
    615        1       9      53     1.00000000     
    616        1       9      54     1.00000000     
    617        1       9      55     1.00000000     
    618        1       9      56     1.00000000     
    619        1       9      57     1.00000000     
    620        1       9      58     1.00000000     
    621        1       9      59     1.00000000     
    622        1       9      60     1.00000000     
    623        1       9      61     1.00000000     
    624        1       9      62     1.00000000     
    625        1       9      63     1.00000000     
    626        1       9      64     1.00000000     
    627        1       9      65     1.00000000     
    628        1       9      66     1.00000000     
    629        1       9      67     1.00000000     
    630        1       9      68     1.00000000     
    631        1       9      69     1.00000000     
    632        1       9      70     1.00000000     
    633        1       9      71     1.00000000     
    634        1       9      72     1.00000000     
    635        1       9      73     1.00000000     
    636        1      10       1     1.00000000     
    637        1      10       2     1.00000000     
    638        1      10       3     1.00000000     
    639        1      10       4     1.00000000     
    640        1      10       5     1.00000000     
    641        1      10       6     1.00000000     
    642        1      10      12     1.00000000     
    643        1      10      13     1.00000000     
    644        1      10      14     1.00000000     
    645        1      10      15     1.00000000     
    646        1      10      16     1.00000000     
    647        1      10      17     1.00000000     
    648        1      10      18     1.00000000     
    649        1      10      19     1.00000000     
    650        1      10      20     1.00000000     
    651        1      10      21     1.00000000     
    652        1      10      22     1.00000000     
    653        1      10      23     1.00000000     
    654        1      10      24     1.00000000     
    655        1      10      25     1.00000000     
    656        1      10      30     1.00000000     
    657        1      10      31     1.00000000     
    658        1      10      32     1.00000000     
    659        1      10      33     1.00000000     
    660        1      10      34     1.00000000     
    661        1      10      35     1.00000000     
    662        1      10      36     1.00000000     
    663        1      10      37     1.00000000     
    664        1      10      38     1.00000000     
    665        1      10      39     1.00000000     
    666        1      10      40     1.00000000     
    667        1      10      41     1.00000000     
    668        1      10      42     1.00000000     
    669        1      10      43     1.00000000     
    670        1      10      44     1.00000000     
    671        1      10      45     1.00000000     
    672        1      10      46     1.00000000     
    673        1      10      47     1.00000000     
    674        1      10      48     1.00000000     
    675        1      10      49     1.00000000     
    676        1      10      50     1.00000000     
    677        1      10      51     1.00000000     
    678        1      10      52     1.00000000     
    679        1      10      53     1.00000000     
    680        1      10      54     1.00000000     
    681        1      10      55     1.00000000     
    682        1      10      56     1.00000000     
    683        1      10      57     1.00000000     
    684        1      10      58     1.00000000     
    685        1      10      59     1.00000000     
    686        1      10      60     1.00000000     
    687        1      10      61     1.00000000     
    688        1      10      62     1.00000000     
    689        1      10      63     1.00000000     
    690        1      10      64     1.00000000     
    691        1      10      65     1.00000000     
    692        1      10      66     1.00000000     
    693        1      10      67     1.00000000     
    694        1      10      68     1.00000000     
    695        1      10      69     1.00000000     
    696        1      10      70     1.00000000     
    697        1      10      71     1.00000000     
    698        1      10      72     1.00000000     
    699        1      10      73     1.00000000     
    700        1      11       1     1.00000000     
    701        1      11       2     1.00000000     
    702        1      11       3     1.00000000     
    703        1      11       4     1.00000000     
    704        1      11       7     1.00000000     
    705        1      11       8     1.00000000     
    706        1      11       9     1.00000000     
    707        1      11      10     1.00000000     
    708        1      11      11     1.00000000     
    709        1      11      12     1.00000000     
    710        1      11      13     1.00000000     
    711        1      11      14     1.00000000     
    712        1      11      15     1.00000000     
    713        1      11      16     1.00000000     
    714        1      11      17     1.00000000     
    715        1      11      18     1.00000000     
    716        1      11      19     1.00000000     
    717        1      11      20     1.00000000     
    718        1      11      21     1.00000000     
    719        1      11      22     1.00000000     
    720        1      11      26     1.00000000     
    721        1      11      27     1.00000000     
    722        1      11      28     1.00000000     
    723        1      11      29     1.00000000     
    724        1      11      30     1.00000000     
    725        1      11      31     1.00000000     
    726        1      11      32     1.00000000     
    727        1      11      33     1.00000000     
    728        1      11      34     1.00000000     
    729        1      11      35     1.00000000     
    730        1      11      36     1.00000000     
    731        1      11      37     1.00000000     
    732        1      11      38     1.00000000     
    733        1      11      39     1.00000000     
    734        1      11      40     1.00000000     
    735        1      11      41     1.00000000     
    736        1      11      42     1.00000000     
    737        1      11      43     1.00000000     
    738        1      11      44     1.00000000     
    739        1      11      45     1.00000000     
    740        1      11      46     1.00000000     
    741        1      11      47     1.00000000     
    742        1      11      48     1.00000000     
    743        1      11      49     1.00000000     
    744        1      11      50     1.00000000     
    745        1      11      51     1.00000000     
    746        1      11      52     1.00000000     
    747        1      11      53     1.00000000     
    748        1      11      54     1.00000000     
    749        1      11      55     1.00000000     
    750        1      11      56     1.00000000     
    751        1      11      57     1.00000000     
    752        1      11      58     1.00000000     
    753        1      11      59     1.00000000     
    754        1      11      60     1.00000000     
    755        1      11      61     1.00000000     
    756        1      11      62     1.00000000     
    757        1      11      63     1.00000000     
    758        1      11      64     1.00000000     
    759        1      11      65     1.00000000     
    760        1      11      66     1.00000000     
    761        1      11      67     1.00000000     
    762        1      11      68     1.00000000     
    763        1      11      69     1.00000000     
    764        1      11      70     1.00000000     
    765        1      11      71     1.00000000     
    766        1      11      72     1.00000000     
    767        1      11      73     1.00000000     
    768        1      12       1     1.00000000     
    769        1      12       4     1.00000000     
    770        1      12       5     1.00000000     
    771        1      12       6     1.00000000     
    772        1      12       7     1.00000000     
    773        1      12       8     1.00000000     
    774        1      12       9     1.00000000     
    775        1      12      10     1.00000000     
    776        1      12      11     1.00000000     
    777        1      12      12     1.00000000     
    778        1      12      13     1.00000000     
    779        1      12      14     1.00000000     
    780        1      12      15     1.00000000     
    781        1      12      16     1.00000000     
    782        1      12      17     1.00000000     
    783        1      12      18     1.00000000     
    784        1      12      19     1.00000000     
    785        1      12      20     1.00000000     
    786        1      12      28     1.00000000     
    787        1      12      29     1.00000000     
    788        1      12      30     1.00000000     
    789        1      12      31     1.00000000     
    790        1      12      32     1.00000000     
    791        1      12      33     1.00000000     
    792        1      12      34     1.00000000     
    793        1      12      35     1.00000000     
    794        1      12      36     1.00000000     
    795        1      12      37     1.00000000     
    796        1      12      38     1.00000000     
    797        1      12      39     1.00000000     
    798        1      12      40     1.00000000     
    799        1      12      41     1.00000000     
    800        1      12      42     1.00000000     
    801        1      12      43     1.00000000     
    802        1      12      44     1.00000000     
    803        1      12      45     1.00000000     
    804        1      12      46     1.00000000     
    805        1      12      47     1.00000000     
    806        1      12      48     1.00000000     
    807        1      12      49     1.00000000     
    808        1      12      50     1.00000000     
    809        1      12      51     1.00000000     
    810        1      12      52     1.00000000     
    811        1      12      53     1.00000000     
    812        1      12      54     1.00000000     
    813        1      12      55     1.00000000     
    814        1      12      56     1.00000000     
    815        1      12      57     1.00000000     
    816        1      12      58     1.00000000     
    817        1      12      59     1.00000000     
    818        1      12      60     1.00000000     
    819        1      12      61     1.00000000     
    820        1      12      62     1.00000000     
    821        1      12      63     1.00000000     
    822        1      12      64     1.00000000     
    823        1      12      65     1.00000000     
    824        1      12      66     1.00000000     
    825        1      12      67     1.00000000     
    826        1      12      68     1.00000000     
    827        1      12      69     1.00000000     
    828        1      12      70     1.00000000     
    829        1      12      71     1.00000000     
    830        1      12      72     1.00000000     
    831        1      13       2     1.00000000     
    832        1      13       3     1.00000000     
    833        1      13       4     1.00000000     
    834        1      13       5     1.00000000     
    835        1      13       6     1.00000000     
    836        1      13       7     1.00000000     
    837        1      13       8     1.00000000     
    838        1      13       9     1.00000000     
    839        1      13      10     1.00000000     
    840        1      13      11     1.00000000     
    841        1      13      12     1.00000000     
    842        1      13      13     1.00000000     
    843        1      13      14     1.00000000     
    844        1      13      15     1.00000000     
    845        1      13      16     1.00000000     
    846        1      13      17     1.00000000     
    847        1      13      18     1.00000000     
    848        1      13      19     1.00000000     
    849        1      13      20     1.00000000     
    850        1      13      21     1.00000000     
    851        1      13      22     1.00000000     
    852        1      13      23     1.00000000     
    853        1      13      27     1.00000000     
    854        1      13      28     1.00000000     
    855        1      13      29     1.00000000     
    856        1      13      30     1.00000000     
    857        1      13      31     1.00000000     
    858        1      13      32     1.00000000     
    859        1      13      33     1.00000000     
    860        1      13      34     1.00000000     
    861        1      13      35     1.00000000     
    862        1      13      36     1.00000000     
    863        1      13      37     1.00000000     
    864        1      13      38     1.00000000     
    865        1      13      39     1.00000000     
    866        1      13      40     1.00000000     
    867        1      13      41     1.00000000     
    868        1      13      42     1.00000000     
    869        1      13      43     1.00000000     
    870        1      13      44     1.00000000     
    871        1      13      45     1.00000000     
    872        1      13      46     1.00000000     
    873        1      13      47     1.00000000     
    874        1      13      48     1.00000000     
    875        1      13      49     1.00000000     
    876        1      13      50     1.00000000     
    877        1      13      51     1.00000000     
    878        1      13      52     1.00000000     
    879        1      13      53     1.00000000     
    880        1      13      54     1.00000000     
    881        1      13      55     1.00000000     
    882        1      13      56     1.00000000     
    883        1      13      57     1.00000000     
    884        1      13      58     1.00000000     
    885        1      13      59     1.00000000     
    886        1      13      60     1.00000000     
    887        1      13      61     1.00000000     
    888        1      13      62     1.00000000     
    889        1      13      63     1.00000000     
    890        1      13      64     1.00000000     
    891        1      13      65     1.00000000     
    892        1      13      66     1.00000000     
    893        1      13      67     1.00000000     
    894        1      13      68     1.00000000     
    895        1      13      69     1.00000000     
    896        1      13      70     1.00000000     
    897        1      13      71     1.00000000     
    898        1      13      72     1.00000000     
    899        1      14       2     1.00000000     
    900        1      14       3     1.00000000     
    901        1      14       4     1.00000000     
    902        1      14       5     1.00000000     
    903        1      14       6     1.00000000     
    904        1      14       7     1.00000000     
    905        1      14       8     1.00000000     
    906        1      14       9     1.00000000     
    907        1      14      10     1.00000000     
    908        1      14      11     1.00000000     
    909        1      14      12     1.00000000     
    910        1      14      13     1.00000000     
    911        1      14      14     1.00000000     
    912        1      14      15     1.00000000     
    913        1      14      16     1.00000000     
    914        1      14      17     1.00000000     
    915        1      14      18     1.00000000     
    916        1      14      19     1.00000000     
    917        1      14      20     1.00000000     
    918        1      14      21     1.00000000     
    919        1      14      22     1.00000000     
    920        1      14      23     1.00000000     
    921        1      14      24     1.00000000     
    922        1      14      27     1.00000000     
    923        1      14      28     1.00000000     
    924        1      14      29     1.00000000     
    925        1      14      30     1.00000000     
    926        1      14      31     1.00000000     
    927        1      14      32     1.00000000     
    928        1      14      33     1.00000000     
    929        1      14      34     1.00000000     
    930        1      14      35     1.00000000     
    931        1      14      36     1.00000000     
    932        1      14      37     1.00000000     
    933        1      14      38     1.00000000     
    934        1      14      39     1.00000000     
    935        1      14      40     1.00000000     
    936        1      14      41     1.00000000     
    937        1      14      42     1.00000000     
    938        1      14      43     1.00000000     
    939        1      14      44     1.00000000     
    940        1      14      45     1.00000000     
    941        1      14      46     1.00000000     
    942        1      14      47     1.00000000     
    943        1      14      48     1.00000000     
    944        1      14      49     1.00000000     
    945        1      14      50     1.00000000     
    946        1      14      51     1.00000000     
    947        1      14      52     1.00000000     
    948        1      14      53     1.00000000     
    949        1      14      54     1.00000000     
    950        1      14      55     1.00000000     
    951        1      14      56     1.00000000     
    952        1      14      57     1.00000000     
    953        1      14      58     1.00000000     
    954        1      14      59     1.00000000     
    955        1      14      60     1.00000000     
    956        1      14      61     1.00000000     
    957        1      14      62     1.00000000     
    958        1      14      63     1.00000000     
    959        1      14      64     1.00000000     
    960        1      14      65     1.00000000     
    961        1      14      66     1.00000000     
    962        1      14      67     1.00000000     
    963        1      14      68     1.00000000     
    964        1      14      69     1.00000000     
    965        1      14      70     1.00000000     
    966        1      14      71     1.00000000     
    967        1      14      72     1.00000000     
    968        1      14      73     1.00000000     
    969        1      15       2     1.00000000     
    970        1      15       3     1.00000000     
    971        1      15       4     1.00000000     
    972        1      15       5     1.00000000     
    973        1      15       6     1.00000000     
    974        1      15       7     1.00000000     
    975        1      15       8     1.00000000     
    976        1      15       9     1.00000000     
    977        1      15      10     1.00000000     
    978        1      15      11     1.00000000     
    979        1      15      12     1.00000000     
    980        1      15      13     1.00000000     
    981        1      15      14     1.00000000     
    982        1      15      15     1.00000000     
    983        1      15      16     1.00000000     
    984        1      15      17     1.00000000     
    985        1      15      18     1.00000000     
    986        1      15      19     1.00000000     
    987        1      15      20     1.00000000     
    988        1      15      21     1.00000000     
    989        1      15      22     1.00000000     
    990        1      15      23     1.00000000     
    991        1      15      24     1.00000000     
    992        1      15      25     1.00000000     
    993        1      15      28     1.00000000     
    994        1      15      29     1.00000000     
    995        1      15      30     1.00000000     
    996        1      15      31     1.00000000     
    997        1      15      32     1.00000000     
    998        1      15      33     1.00000000     
    999        1      15      34     1.00000000     
    1000       1      15      35     1.00000000     
    1001       1      15      36     1.00000000     
    1002       1      15      37     1.00000000     
    1003       1      15      38     1.00000000     
    1004       1      15      39     1.00000000     
    1005       1      15      40     1.00000000     
    1006       1      15      41     1.00000000     
    1007       1      15      42     1.00000000     
    1008       1      15      43     1.00000000     
    1009       1      15      44     1.00000000     
    1010       1      15      45     1.00000000     
    1011       1      15      46     1.00000000     
    1012       1      15      47     1.00000000     
    1013       1      15      48     1.00000000     
    1014       1      15      49     1.00000000     
    1015       1      15      50     1.00000000     
    1016       1      15      51     1.00000000     
    1017       1      15      52     1.00000000     
    1018       1      15      53     1.00000000     
    1019       1      15      54     1.00000000     
    1020       1      15      55     1.00000000     
    1021       1      15      56     1.00000000     
    1022       1      15      57     1.00000000     
    1023       1      15      58     1.00000000     
    1024       1      15      59     1.00000000     
    1025       1      15      60     1.00000000     
    1026       1      15      61     1.00000000     
    1027       1      15      62     1.00000000     
    1028       1      15      63     1.00000000     
    1029       1      15      64     1.00000000     
    1030       1      15      65     1.00000000     
    1031       1      15      66     1.00000000     
    1032       1      15      67     1.00000000     
    1033       1      15      68     1.00000000     
    1034       1      15      69     1.00000000     
    1035       1      15      70     1.00000000     
    1036       1      15      71     1.00000000     
    1037       1      15      72     1.00000000     
    1038       1      15      73     1.00000000     
    1039       1      16       3     1.00000000     
    1040       1      16       4     1.00000000     
    1041       1      16       5     1.00000000     
    1042       1      16       6     1.00000000     
    1043       1      16       7     1.00000000     
    1044       1      16       8     1.00000000     
    1045       1      16       9     1.00000000     
    1046       1      16      10     1.00000000     
    1047       1      16      11     1.00000000     
    1048       1      16      12     1.00000000     
    1049       1      16      13     1.00000000     
    1050       1      16      14     1.00000000     
    1051       1      16      15     1.00000000     
    1052       1      16      16     1.00000000     
    1053       1      16      17     1.00000000     
    1054       1      16      18     1.00000000     
    1055       1      16      19     1.00000000     
    1056       1      16      20     1.00000000     
    1057       1      16      24     1.00000000     
    1058       1      16      25     1.00000000     
    1059       1      16      26     1.00000000     
    1060       1      16      30     1.00000000     
    1061       1      16      31     1.00000000     
    1062       1      16      32     1.00000000     
    1063       1      16      41     1.00000000     
    1064       1      16      42     1.00000000     
    1065       1      16      43     1.00000000     
    1066       1      16      44     1.00000000     
    1067       1      16      45     1.00000000     
    1068       1      16      46     1.00000000     
    1069       1      16      47     1.00000000     
    1070       1      16      48     1.00000000     
    1071       1      16      49     1.00000000     
    1072       1      16      50     1.00000000     
    1073       1      16      51     1.00000000     
    1074       1      16      52     1.00000000     
    1075       1      16      53     1.00000000     
    1076       1      16      54     1.00000000     
    1077       1      16      55     1.00000000     
    1078       1      16      56     1.00000000     
    1079       1      16      57     1.00000000     
    1080       1      16      58     1.00000000     
    1081       1      16      59     1.00000000     
    1082       1      16      60     1.00000000     
    1083       1      16      61     1.00000000     
    1084       1      16      62     1.00000000     
    1085       1      16      63     1.00000000     
    1086       1      16      64     1.00000000     
    1087       1      16      65     1.00000000     
    1088       1      16      66     1.00000000     
    1089       1      16      67     1.00000000     
    1090       1      16      68     1.00000000     
    1091       1      16      69     1.00000000     
    1092       1      16      70     1.00000000     
    1093       1      16      71     1.00000000     
    1094       1      16      72     1.00000000     
    1095       1      16      73     1.00000000     
    1096       1      17       5     1.00000000     
    1097       1      17       6     1.00000000     
    1098       1      17       7     1.00000000     
    1099       1      17       8     1.00000000     
    1100       1      17       9     1.00000000     
    1101       1      17      22     1.00000000     
    1102       1      17      34     1.00000000     
    1103       1      17      35     1.00000000     
    1104       1      17      36     1.00000000     
    1105       1      17      37     1.00000000     
    1106       1      17      38     1.00000000     
    1107       1      17      39     1.00000000     
    1108       1      17      44     1.00000000     
    1109       1      17      45     1.00000000     
    1110       1      17      46     1.00000000     
    1111       1      17      47     1.00000000     
    1112       1      17      48     1.00000000     
    1113       1      17      49     1.00000000     
    1114       1      17      50     1.00000000     
    1115       1      17      51     1.00000000     
    1116       1      17      52     1.00000000     
    1117       1      17      53     1.00000000     
    1118       1      17      54     1.00000000     
    1119       1      17      55     1.00000000     
    1120       1      17      56     1.00000000     
    1121       1      17      57     1.00000000     
    1122       1      17      58     1.00000000     
    1123       1      17      59     1.00000000     
    1124       1      17      60     1.00000000     
    1125       1      17      61     1.00000000     
    1126       1      17      62     1.00000000     
    1127       1      17      63     1.00000000     
    1128       1      17      64     1.00000000     
    1129       1      17      65     1.00000000     
    1130       1      17      66     1.00000000     
    1131       1      17      67     1.00000000     
    1132       1      18       2     1.00000000     
    1133       1      18       3     1.00000000     
    1134       1      18      11     1.00000000     
    1135       1      18      12     1.00000000     
    1136       1      18      13     1.00000000     
    1137       1      18      14     1.00000000     
    1138       1      18      17     1.00000000     
    1139       1      18      18     1.00000000     
    1140       1      18      19     1.00000000     
    1141       1      18      20     1.00000000     
    1142       1      18      21     1.00000000     
    1143       1      18      22     1.00000000     
    1144       1      18      23     1.00000000     
    1145       1      18      24     1.00000000     
    1146       1      18      25     1.00000000     
    1147       1      18      26     1.00000000     
    1148       1      18      27     1.00000000     
    1149       1      18      28     1.00000000     
    1150       1      18      29     1.00000000     
    1151       1      18      30     1.00000000     
    1152       1      18      31     1.00000000     
    1153       1      18      32     1.00000000     
    1154       1      18      33     1.00000000     
    1155       1      18      34     1.00000000     
    1156       1      18      35     1.00000000     
    1157       1      18      36     1.00000000     
    1158       1      18      37     1.00000000     
    1159       1      18      38     1.00000000     
    1160       1      18      39     1.00000000     
    1161       1      18      40     1.00000000     
    1162       1      18      41     1.00000000     
    1163       1      18      42     1.00000000     
    1164       1      18      48     1.00000000     
    1165       1      18      49     1.00000000     
    1166       1      18      50     1.00000000     
    1167       1      18      51     1.00000000     
    1168       1      18      52     1.00000000     
    1169       1      18      53     1.00000000     
    1170       1      18      54     1.00000000     
    1171       1      18      55     1.00000000     
    1172       1      18      56     1.00000000     
    1173       1      18      57     1.00000000     
    1174       1      18      58     1.00000000     
    1175       1      18      59     1.00000000     
    1176       1      18      60     1.00000000     
    1177       1      18      61     1.00000000     
    1178       1      18      62     1.00000000     
    1179       1      18      63     1.00000000     
    1180       1      18      64     1.00000000     
    1181       1      18      69     1.00000000     
    1182       1      18      70     1.00000000     
    1183       1      18      71     1.00000000     
    1184       1      18      72     1.00000000     
    1185       1      18      73     1.00000000     
    1186       1      19       1     1.00000000     
    1187       1      19       2     1.00000000     
    1188       1      19       3     1.00000000     
    1189       1      19       4     1.00000000     
    1190       1      19       5     1.00000000     
    1191       1      19       6     1.00000000     
    1192       1      19       7     1.00000000     
    1193       1      19       8     1.00000000     
    1194       1      19       9     1.00000000     
    1195       1      19      10     1.00000000     
    1196       1      19      11     1.00000000     
    1197       1      19      12     1.00000000     
    1198       1      19      13     1.00000000     
    1199       1      19      16     1.00000000     
    1200       1      19      17     1.00000000     
    1201       1      19      18     1.00000000     
    1202       1      19      19     1.00000000     
    1203       1      19      20     1.00000000     
    1204       1      19      21     1.00000000     
    1205       1      19      22     1.00000000     
    1206       1      19      23     1.00000000     
    1207       1      19      24     1.00000000     
    1208       1      19      25     1.00000000     
    1209       1      19      26     1.00000000     
    1210       1      19      27     1.00000000     
    1211       1      19      28     1.00000000     
    1212       1      19      29     1.00000000     
    1213       1      19      30     1.00000000     
    1214       1      19      31     1.00000000     
    1215       1      19      32     1.00000000     
    1216       1      19      33     1.00000000     
    1217       1      19      34     1.00000000     
    1218       1      19      35     1.00000000     
    1219       1      19      36     1.00000000     
    1220       1      19      37     1.00000000     
    1221       1      19      38     1.00000000     
    1222       1      19      39     1.00000000     
    1223       1      19      40     1.00000000     
    1224       1      19      41     1.00000000     
    1225       1      19      42     1.00000000     
    1226       1      19      43     1.00000000     
    1227       1      19      44     1.00000000     
    1228       1      19      45     1.00000000     
    1229       1      19      46     1.00000000     
    1230       1      19      47     1.00000000     
    1231       1      19      48     1.00000000     
    1232       1      19      49     1.00000000     
    1233       1      19      50     1.00000000     
    1234       1      19      51     1.00000000     
    1235       1      19      52     1.00000000     
    1236       1      19      53     1.00000000     
    1237       1      19      54     1.00000000     
    1238       1      19      55     1.00000000     
    1239       1      19      56     1.00000000     
    1240       1      19      57     1.00000000     
    1241       1      19      58     1.00000000     
    1242       1      19      59     1.00000000     
    1243       1      19      60     1.00000000     
    1244       1      19      61     1.00000000     
    1245       1      19      65     1.00000000     
    1246       1      19      66     1.00000000     
    1247       1      19      67     1.00000000     
    1248       1      19      68     1.00000000     
    1249       1      19      69     1.00000000     
    1250       1      19      70     1.00000000     
    1251       1      19      71     1.00000000     
    1252       1      19      72     1.00000000     
    1253       1      19      73     1.00000000     
    1254       1      20       1     1.00000000     
    1255       1      20       2     1.00000000     
    1256       1      20       3     1.00000000     
[...]
    2520       1      27       8   
    2521       1      27       9   
    2522       1      27      10   
    2523       1      27      11   
    2524       1      27      12   
    2525       1      27      13   
    2526       1      27      14   
    2527       1      27      15   
    2528       1      27      16   
    2529       1      27      17   
    2530       1      27      18   
    2531       1      27      19   
    2532       1      27      20   
    2533       1      27      21   
    2534       1      27      22   
    2535       1      27      23   
    2536       1      27      24   
    2537       1      27      25   
    2538       1      27      26   
    2539       1      27      27   
    2540       1      27      28   
    2541       1      27      29   
    2542       1      27      30   
    2543       1      27      31   
    2544       1      27      32   
    2545      -1      -1      -1   
    2546      -1      -1      -1   
    2547      -1      -1      -1   
    2548      -1      -1      -1   
    2549      -1      -1      -1   
    2550      -1      -1      -1   
    2551      -1      -1      -1   
    2552      -1      -1      -1   
    2553      -1      -1      -1   
    2554      -1      -1      -1   
    2555      -1      -1      -1   
    2556      -1      -1      -1   
    2557      -1      -1      -1   
    2558      -1      -1      -1   
    2559      -1      -1      -1   
    2560      -1      -1      -1   
    2561      -1      -1      -1   
    2562      -1      -1      -1   
    2563      -1      -1      -1   
    2564      -1      -1      -1   
    2565      -1      -1      -1   
    2566      -1      -1      -1   
    2567      -1      -1      -1   
    2568      -1      -1      -1   
    2569      -1      -1      -1   
    2570      -1      -1      -1   
    2571      -1      -1      -1   
    2572      -1      -1      -1   
    2573       1      27      33   
    2574       1      27      34   
    2575       1      27      35   
    2576       1      27      36   
    2577       1      27      37   
    2578       1      27      38   
    2579       1      27      39   
    2580       1      27      40   
    2581       1      27      41   
    2582       1      27      42   
    2583       1      27      43   
    2584       1      27      44   
    2585       1      27      45   
    2586       1      27      46   
    2587       1      27      47   
    2588       1      27      48   
    2589       1      27      49   
    2590       1      27      50   
    2591       1      27      51   
    2592       1      27      52   
    2593       1      27      53   
    2594       1      27      54   
    2595       1      27      55   
    2596       1      27      56   
    2597       1      27      57   
    2598       1      27      58   
    2599       1      27      59   
    2600       1      27      60   
    2601       1      27      61   
    2602       1      27      62   
    2603       1      27      63   
    2604       1      27      64   
    2605       1      27      65   
    2606       1      27      66   
    2607       1      27      67   
    2608       1      27      68   
    2609       1      27      69   
    2610       1      27      70   
    2611       1      27      71   
    2612       1      27      72   
    2613       1      27      73   
    2614       1      28       1   
    2615       1      28       2   
    2616       1      28       3   
    2617      -1      -1      -1   
    2618      -1      -1      -1   
    2619      -1      -1      -1   
    2620      -1      -1      -1   
    2621      -1      -1      -1   
    2622      -1      -1      -1   
    2623      -1      -1      -1   
    2624      -1      -1      -1   
    2625      -1      -1      -1   
    2626      -1      -1      -1   
    2627      -1      -1      -1   
    2628      -1      -1      -1   
    2629      -1      -1      -1   
    2630      -1      -1      -1   
    2631      -1      -1      -1   
    2632      -1      -1      -1   
    2633      -1      -1      -1   
    2634      -1      -1      -1   
    2635      -1      -1      -1   
    2636      -1      -1      -1   
    2637      -1      -1      -1   
    2638      -1      -1      -1   
    2639      -1      -1      -1   
    2640      -1      -1      -1   
    2641      -1      -1      -1   
    2642      -1      -1      -1   
    2643      -1      -1      -1   
    2644      -1      -1      -1   
    2645      -1      -1      -1   
    2646      -1      -1      -1   
    2647      -1      -1      -1   
    2648      -1      -1      -1   
    2649      -1      -1      -1   
    2650       1      28       4   
    2651       1      28       5   
    2652       1      28       6   
    2653       1      28       7   
    2654       1      28       8   
    2655       1      28       9   
    2656       1      28      10   
    2657       1      28      11   
    2658       1      28      12   
    2659       1      28      13   
    2660       1      28      14   
    2661       1      28      15   
    2662       1      28      16   
    2663       1      28      17   
    2664       1      28      18   
    2665       1      28      19   
    2666       1      28      20   
    2667       1      28      21   
    2668       1      28      22   
    2669       1      28      23   
    2670       1      28      24   
    2671       1      28      25   
    2672       1      28      26   
    2673       1      28      27   
    2674       1      28      28   
    2675       1      28      29   
    2676       1      28      30   
    2677       1      28      31   
    2678       1      28      32   
    2679       1      28      33   
    2680       1      28      34   
    2681       1      28      35   
    2682       1      28      36   
    2683       1      28      37   
    2684       1      28      38   
    2685       1      28      39   
    2686       1      28      40   
    2687       1      28      41   
    2688      -1      -1      -1   
    2689      -1      -1      -1   
    2690      -1      -1      -1   
    2691      -1      -1      -1   
    2692      -1      -1      -1   
    2693      -1      -1      -1   
    2694      -1      -1      -1   
    2695      -1      -1      -1   
    2696      -1      -1      -1   
    2697      -1      -1      -1   
    2698      -1      -1      -1   
    2699      -1      -1      -1   
    2700      -1      -1      -1   
    2701      -1      -1      -1   
    2702      -1      -1      -1   
    2703      -1      -1      -1   
    2704      -1      -1      -1   
    2705      -1      -1      -1   
    2706      -1      -1      -1   
    2707      -1      -1      -1   
    2708      -1      -1      -1   
    2709      -1      -1      -1   
    2710      -1      -1      -1   
    2711      -1      -1      -1   
    2712      -1      -1      -1   
    2713      -1      -1      -1   
    2714      -1      -1      -1   
    2715      -1      -1      -1   
    2716      -1      -1      -1   
    2717      -1      -1      -1   
    2718      -1      -1      -1   
    2719      -1      -1      -1   
    2720      -1      -1      -1   
    2721      -1      -1      -1   
    2722      -1      -1      -1   
    2723      -1      -1      -1   
    2724      -1      -1      -1   
    2725      -1      -1      -1   
    2726      -1      -1      -1   
    2727       1      28      42   
    2728       1      28      43   
    2729       1      28      44   
    2730       1      28      45   
    2731       1      28      46   
    2732       1      28      47   
    2733       1      28      48   
    2734       1      28      49   
    2735       1      28      50   
    2736       1      28      51   
    2737       1      28      52   
    2738       1      28      53   
    2739       1      28      54   
    2740       1      28      55   
    2741       1      28      56   
    2742       1      28      57   
    2743       1      28      58   
    2744       1      28      59   
    2745       1      28      60   
    2746       1      28      61   
    2747       1      28      62   
    2748       1      28      63   
    2749       1      28      64   
    2750       1      28      65   
    2751       1      28      66   
    2752       1      28      67   
    2753       1      28      68   
    2754       1      28      69   
    2755       1      28      70   
    2756       1      28      71   
    2757       1      28      72   
    2758       1      28      73   
    2759      -1      -1      -1   
    2760      -1      -1      -1   
    2761      -1      -1      -1   
    2762      -1      -1      -1   
    2763      -1      -1      -1   
    2764      -1      -1      -1   
    2765      -1      -1      -1   
    2766      -1      -1      -1   
    2767      -1      -1      -1   
    2768      -1      -1      -1   
    2769      -1      -1      -1   
    2770      -1      -1      -1   
    2771      -1      -1      -1   
    2772      -1      -1      -1   
    2773      -1      -1      -1   
    2774      -1      -1      -1   
    2775      -1      -1      -1   
    2776      -1      -1      -1   
    2777      -1      -1      -1   
    2778      -1      -1      -1   
    2779      -1      -1      -1   
    2780      -1      -1      -1   
    2781      -1      -1      -1   
    2782      -1      -1      -1   
    2783      -1      -1      -1   
    2784      -1      -1      -1   
    2785      -1      -1      -1   
    2786      -1      -1      -1   
    2787      -1      -1      -1   
    2788      -1      -1      -1   
    2789      -1      -1      -1   
    2790      -1      -1      -1   
    2791      -1      -1      -1   
    2792      -1      -1      -1   
    2793      -1      -1      -1   
    2794      -1      -1      -1   
    2795      -1      -1      -1   
    2796      -1      -1      -1   
    2797      -1      -1      -1   
    2798      -1      -1      -1   
    2799      -1      -1      -1   
    2800      -1      -1      -1   
    2801      -1      -1      -1   
    2802      -1      -1      -1   
    2803      -1      -1      -1   
    2804      -1      -1      -1   
    2805      -1      -1      -1   
    2806      -1      -1      -1   
    2807       1      29       1   
    2808       1      29       2   
    2809       1      29       3   
    2810       1      29       4   
    2811       1      29       5   
    2812       1      29       6   
    2813       1      29       7   
    2814       1      29       8   
    2815       1      29       9   
    2816       1      29      10   
    2817       1      29      11   
    2818       1      29      12   
    2819       1      29      13   
    2820       1      29      14   
    2821       1      29      15   
    2822       1      29      16   
    2823       1      29      17   
    2824       1      29      18   
    2825       1      29      19   
    2826       1      29      20   
    2827       1      29      21   
    2828       1      29      22   
    2829       1      29      23   
    2830       1      29      24   
    2831      -1      -1      -1   
    2832      -1      -1      -1   
    2833      -1      -1      -1   
    2834      -1      -1      -1   
    2835      -1      -1      -1   
    2836      -1      -1      -1   
    2837      -1      -1      -1   
    2838      -1      -1      -1   
    2839      -1      -1      -1   
    2840      -1      -1      -1   
    2841      -1      -1      -1   
    2842      -1      -1      -1   
    2843      -1      -1      -1   
    2844      -1      -1      -1   
    2845      -1      -1      -1   
    2846      -1      -1      -1   
    2847      -1      -1      -1   
    2848      -1      -1      -1   
    2849      -1      -1      -1   
    2850      -1      -1      -1   
    2851      -1      -1      -1   
    2852      -1      -1      -1   
    2853      -1      -1      -1   
    2854      -1      -1      -1   
    2855      -1      -1      -1   
    2856      -1      -1      -1   
    2857      -1      -1      -1   
    2858      -1      -1      -1   
    2859      -1      -1      -1   
    2860      -1      -1      -1   
    2861      -1      -1      -1   
    2862      -1      -1      -1   
    2863      -1      -1      -1   
    2864      -1      -1      -1   
    2865      -1      -1      -1   
    2866      -1      -1      -1   
    2867      -1      -1      -1   
    2868      -1      -1      -1   
    2869      -1      -1      -1   
    2870      -1      -1      -1   
    2871      -1      -1      -1   
    2872      -1      -1      -1   
    2873      -1      -1      -1   
    2874      -1      -1      -1   
    2875      -1      -1      -1   
    2876      -1      -1      -1   
    2877      -1      -1      -1   
    2878      -1      -1      -1   
    2879      -1      -1      -1   
    2880      -1      -1      -1   
    2881      -1      -1      -1   
    2882      -1      -1      -1   
    2883      -1      -1      -1   
    2884      -1      -1      -1   
    2885      -1      -1      -1   
    2886      -1      -1      -1   
    2887       1      29      25   
    2888       1      29      26   
    2889       1      29      27   
    2890       1      29      28   
    2891       1      29      29   
    2892       1      29      30   
    2893       1      29      31   
    2894       1      29      32   
    2895       1      29      33   
    2896       1      29      34   
    2897       1      29      35   
    2898       1      29      36   
    2899       1      29      37   
    2900       1      29      38   
    2901       1      29      39   
    2902      -1      -1      -1   
    2903      -1      -1      -1   
    2904      -1      -1      -1   
    2905      -1      -1      -1   
    2906      -1      -1      -1   
    2907      -1      -1      -1   
    2908      -1      -1      -1   
    2909      -1      -1      -1   
    2910      -1      -1      -1   
    2911      -1      -1      -1   
    2912      -1      -1      -1   
    2913      -1      -1      -1   
    2914      -1      -1      -1   
    2915      -1      -1      -1   
    2916      -1      -1      -1   
    2917      -1      -1      -1   
    2918      -1      -1      -1   
    2919      -1      -1      -1   
    2920      -1      -1      -1   
    2921      -1      -1      -1   
    2922      -1      -1      -1   
    2923      -1      -1      -1   
    2924      -1      -1      -1   
    2925      -1      -1      -1   
    2926      -1      -1      -1   
    2927      -1      -1      -1   
    2928      -1      -1      -1   
    2929      -1      -1      -1   
    2930      -1      -1      -1   
    2931      -1      -1      -1   
    2932      -1      -1      -1   
    2933      -1      -1      -1   
    2934      -1      -1      -1   
    2935      -1      -1      -1   
    2936      -1      -1      -1   
    2937      -1      -1      -1   
    2938      -1      -1      -1   
    2939      -1      -1      -1   
    2940      -1      -1      -1   
    2941      -1      -1      -1   
    2942      -1      -1      -1   
    2943      -1      -1      -1   
    2944      -1      -1      -1   
    2945      -1      -1      -1   
    2946      -1      -1      -1   
    2947      -1      -1      -1   
    2948      -1      -1      -1   
    2949      -1      -1      -1   
    2950      -1      -1      -1   
    2951      -1      -1      -1   
    2952      -1      -1      -1   
    2953      -1      -1      -1   
    2954      -1      -1      -1   
    2955      -1      -1      -1   
    2956      -1      -1      -1   
    2957      -1      -1      -1   
    2958      -1      -1      -1   
    2959      -1      -1      -1   
    2960      -1      -1      -1   
    2961      -1      -1      -1   
    2962      -1      -1      -1   
    2963      -1      -1      -1   
    2964      -1      -1      -1   
    2965      -1      -1      -1   
    2966      -1      -1      -1   
    2967      -1      -1      -1   
    2968      -1      -1      -1   
    2969      -1      -1      -1   
    2970      -1      -1      -1   
    2971      -1      -1      -1   
    2972      -1      -1      -1   
    2973      -1      -1      -1   
    2974      -1      -1      -1   
    2975      -1      -1      -1   
    2976      -1      -1      -1   
    2977      -1      -1      -1   
    2978      -1      -1      -1   
    2979      -1      -1      -1   
    2980      -1      -1      -1   
    2981      -1      -1      -1   
    2982      -1      -1      -1   
    2983      -1      -1      -1   
    2984      -1      -1      -1   
    2985      -1      -1      -1   
    2986      -1      -1      -1   
    2987      -1      -1      -1   
    2988      -1      -1      -1   
    2989      -1      -1      -1   
    2990      -1      -1      -1   
    2991      -1      -1      -1   
    2992      -1      -1      -1   
    2993      -1      -1      -1   
 ----------------------------------


 UBDSV1 SAVING     FLOW-JA-FACE ON UNIT   1015 AT TIME STEP      1, STRESS PERIOD      1
 UBDSV06 SAVING       DATA-SPDIS IN MODEL MODEL            PACKAGE NPF             CONNECTED TO MODEL MODEL            PACKAGE NPF              ON UNIT   1015 AT TIME STEP      1, STRESS PERIOD      1
 UBDSV06 SAVING              DRN IN MODEL MODEL            PACKAGE MODEL           CONNECTED TO MODEL MODEL            PACKAGE RIVER            ON UNIT   1015 AT TIME STEP      1, STRESS PERIOD      1
 UBDSV06 SAVING              DRN IN MODEL MODEL            PACKAGE MODEL           CONNECTED TO MODEL MODEL            PACKAGE GWD              ON UNIT   1015 AT TIME STEP      1, STRESS PERIOD      1
 UBDSV06 SAVING             RCHA IN MODEL MODEL            PACKAGE MODEL           CONNECTED TO MODEL MODEL            PACKAGE RCHA_0           ON UNIT   1015 AT TIME STEP      1, STRESS PERIOD      1

 HEAD WILL BE SAVED ON UNIT 1016 AT END OF TIME STEP    1, STRESS PERIOD    1


  VOLUME BUDGET FOR ENTIRE MODEL AT END OF TIME STEP    1, STRESS PERIOD   1
  ---------------------------------------------------------------------------------------------------

     CUMULATIVE VOLUME      L**3       RATES FOR THIS TIME STEP      L**3/T          PACKAGE NAME    
     ------------------                 ------------------------                     ----------------

           IN:                                      IN:
           ---                                      ---
                 DRN =           0.0000                   DRN =           0.0000     RIVER                            
                 DRN =           0.0000                   DRN =           0.0000     GWD                              
                RCHA =       13018.7500                  RCHA =       13018.7500     RCHA_0                           

            TOTAL IN =       13018.7500              TOTAL IN =       13018.7500

          OUT:                                     OUT:
          ----                                     ----
                 DRN =       11354.3434                   DRN =       11354.3434     RIVER                            
                 DRN =        1664.4216                   DRN =        1664.4216     GWD                              
                RCHA =           0.0000                  RCHA =           0.0000     RCHA_0                           

           TOTAL OUT =       13018.7649             TOTAL OUT =       13018.7649

            IN - OUT =      -1.4944E-02              IN - OUT =      -1.4944E-02

 PERCENT DISCREPANCY =          -0.00     PERCENT DISCREPANCY =          -0.00




         TIME SUMMARY AT END OF TIME STEP    1 IN STRESS PERIOD    1
                          TIME STEP LENGTH =    1.00000    
                        STRESS PERIOD TIME =    1.00000    
                     TOTAL SIMULATION TIME =    1.00000    

end timestep

